<routes><vType accel="2.9" decel="7.5" id="Car" length="4.3" maxSpeed="27.78" minGap="-1" sigma="0.0" tau="0" /><vType accel="2.9" decel="7.5" id="CarVIP" length="6.5" maxSpeed="27.78" minGap="-1" sigma="0.0" tau="0" /><route edges="1to2" id="route0" /><vehicle arrivalLane="1" color="green" depart="0.640439289992" departLane="1" id="0" route="route0" type="Car" /><vehicle arrivalLane="0" color="green" depart="3.5498668679" departLane="0" id="1" route="route0" type="Car" /><vehicle arrivalLane="1" color="green" depart="3.5498668679" departLane="1" id="2" route="route0" type="Car" /><vehicle arrivalLane="1" color="green" depart="6.77646558835" departLane="1" id="3" route="route0" type="Car" /><vehicle arrivalLane="0" color="green" depart="13.8055236139" departLane="0" id="4" route="route0" type="Car" /><vehicle arrivalLane="0" color="green" depart="13.8055236139" departLane="0" id="5" route="route0" type="Car" /><vehicle arrivalLane="0" color="green" depart="13.8055236139" departLane="0" id="6" route="route0" type="Car" /><vehicle arrivalLane="0" color="green" depart="13.8055236139" departLane="0" id="7" route="route0" type="Car" /><vehicle arrivalLane="1" color="green" depart="13.8055236139" departLane="1" id="8" route="route0" type="Car" /><vehicle arrivalLane="1" color="green" depart="15.195052922" departLane="1" id="9" route="route0" type="Car" /><vehicle arrivalLane="1" color="green" depart="15.5064306012" departLane="1" id="10" route="route0" type="Car" /><vehicle arrivalLane="1" color="green" depart="17.2757640969" departLane="1" id="11" route="route0" type="Car" /><vehicle arrivalLane="0" color="green" depart="19.7999802465" departLane="0" id="12" route="route0" type="Car" /><vehicle arrivalLane="1" color="green" depart="19.7999802465" departLane="1" id="13" route="route0" type="Car" /><vehicle arrivalLane="0" color="green" depart="21.0782123438" departLane="0" id="14" route="route0" type="Car" /><vehicle arrivalLane="0" color="green" depart="21.0782123438" departLane="0" id="15" route="route0" type="Car" /><vehicle arrivalLane="1" color="green" depart="21.0782123438" departLane="1" id="16" route="route0" type="Car" /><vehicle arrivalLane="1" color="green" depart="22.3492879911" departLane="1" id="17" route="route0" type="Car" /><vehicle arrivalLane="1" color="green" depart="23.5303024626" departLane="1" id="18" route="route0" type="Car" /><vehicle arrivalLane="1" color="green" depart="24.7334605471" departLane="1" id="19" route="route0" type="Car" /><vehicle arrivalLane="0" color="green" depart="27.1585673499" departLane="0" id="20" route="route0" type="Car" /><vehicle arrivalLane="1" color="green" depart="27.1585673499" departLane="1" id="21" route="route0" type="Car" /><vehicle arrivalLane="0" color="green" depart="28.1740560151" departLane="0" id="22" route="route0" type="Car" /><vehicle arrivalLane="1" color="green" depart="28.1740560151" departLane="1" id="23" route="route0" type="Car" /><vehicle arrivalLane="1" color="green" depart="29.1842267085" departLane="1" id="24" route="route0" type="Car" /><vehicle arrivalLane="0" color="green" depart="37.3914293205" departLane="0" id="25" route="route0" type="Car" /><vehicle arrivalLane="0" color="green" depart="37.3914293205" departLane="0" id="26" route="route0" type="Car" /><vehicle arrivalLane="0" color="green" depart="37.3914293205" departLane="0" id="27" route="route0" type="Car" /><vehicle arrivalLane="0" color="green" depart="37.3914293205" departLane="0" id="28" route="route0" type="Car" /><vehicle arrivalLane="0" color="green" depart="37.3914293205" departLane="0" id="29" route="route0" type="Car" /><vehicle arrivalLane="0" color="green" depart="37.3914293205" departLane="0" id="30" route="route0" type="Car" /><vehicle arrivalLane="0" color="green" depart="37.3914293205" departLane="0" id="31" route="route0" type="Car" /><vehicle arrivalLane="1" color="green" depart="37.3914293205" departLane="1" id="32" route="route0" type="Car" /><vehicle arrivalLane="0" color="green" depart="45.4068335617" departLane="0" id="33" route="route0" type="Car" /><vehicle arrivalLane="0" color="green" depart="45.4068335617" departLane="0" id="34" route="route0" type="Car" /><vehicle arrivalLane="0" color="green" depart="45.4068335617" departLane="0" id="35" route="route0" type="Car" /><vehicle arrivalLane="0" color="green" depart="45.4068335617" departLane="0" id="36" route="route0" type="Car" /><vehicle arrivalLane="0" color="green" depart="45.4068335617" departLane="0" id="37" route="route0" type="Car" /><vehicle arrivalLane="0" color="green" depart="45.4068335617" departLane="0" id="38" route="route0" type="Car" /><vehicle arrivalLane="0" color="green" depart="45.4068335617" departLane="0" id="39" route="route0" type="Car" /><vehicle arrivalLane="0" color="green" depart="45.4068335617" departLane="0" id="40" route="route0" type="Car" /><vehicle arrivalLane="1" color="green" depart="45.4068335617" departLane="1" id="41" route="route0" type="Car" /><vehicle arrivalLane="0" color="green" depart="48.2655939698" departLane="0" id="42" route="route0" type="Car" /><vehicle arrivalLane="1" color="green" depart="48.2655939698" departLane="1" id="43" route="route0" type="Car" /><vehicle arrivalLane="0" color="green" depart="49.9070521659" departLane="0" id="44" route="route0" type="Car" /><vehicle arrivalLane="0" color="green" depart="49.9070521659" departLane="0" id="45" route="route0" type="Car" /><vehicle arrivalLane="0" color="green" depart="49.9070521659" departLane="0" id="46" route="route0" type="Car" /><vehicle arrivalLane="1" color="green" depart="49.9070521659" departLane="1" id="47" route="route0" type="Car" /><vehicle arrivalLane="1" color="green" depart="50.3324829451" departLane="1" id="48" route="route0" type="Car" /><vehicle arrivalLane="0" color="green" depart="51.8622976036" departLane="0" id="49" route="route0" type="Car" /><vehicle arrivalLane="1" color="green" depart="51.8622976036" departLane="1" id="50" route="route0" type="Car" /><vehicle arrivalLane="1" color="green" depart="52.3609139647" departLane="1" id="51" route="route0" type="Car" /><vehicle arrivalLane="1" color="green" depart="52.5906292869" departLane="1" id="52" route="route0" type="Car" /><vehicle arrivalLane="1" color="green" depart="52.7922002511" departLane="1" id="53" route="route0" type="Car" /><vehicle arrivalLane="0" color="green" depart="59.4498583934" departLane="0" id="54" route="route0" type="Car" /><vehicle arrivalLane="0" color="green" depart="59.4498583934" departLane="0" id="55" route="route0" type="Car" /><vehicle arrivalLane="1" color="green" depart="59.4498583934" departLane="1" id="56" route="route0" type="Car" /><vehicle arrivalLane="1" color="green" depart="60.066530209" departLane="1" id="57" route="route0" type="Car" /><vehicle arrivalLane="1" color="green" depart="61.7356470245" departLane="1" id="58" route="route0" type="Car" /><vehicle arrivalLane="1" color="green" depart="63.1255532239" departLane="1" id="59" route="route0" type="Car" /><vehicle arrivalLane="0" color="green" depart="63.7581545491" departLane="0" id="60" route="route0" type="Car" /><vehicle arrivalLane="1" color="green" depart="63.7581545491" departLane="1" id="61" route="route0" type="Car" /><vehicle arrivalLane="0" color="green" depart="67.2550431138" departLane="0" id="62" route="route0" type="Car" /><vehicle arrivalLane="1" color="green" depart="67.2550431138" departLane="1" id="63" route="route0" type="Car" /><vehicle arrivalLane="0" color="green" depart="69.221443165" departLane="0" id="64" route="route0" type="Car" /><vehicle arrivalLane="0" color="green" depart="69.221443165" departLane="0" id="65" route="route0" type="Car" /><vehicle arrivalLane="1" color="green" depart="69.221443165" departLane="1" id="66" route="route0" type="Car" /><vehicle arrivalLane="1" color="green" depart="71.0519182903" departLane="1" id="67" route="route0" type="Car" /><vehicle arrivalLane="0" color="green" depart="74.2830406428" departLane="0" id="68" route="route0" type="Car" /><vehicle arrivalLane="1" color="green" depart="74.2830406428" departLane="1" id="69" route="route0" type="Car" /><vehicle arrivalLane="0" color="green" depart="81.1531473947" departLane="0" id="70" route="route0" type="Car" /><vehicle arrivalLane="0" color="green" depart="81.1531473947" departLane="0" id="71" route="route0" type="Car" /><vehicle arrivalLane="0" color="green" depart="81.1531473947" departLane="0" id="72" route="route0" type="Car" /><vehicle arrivalLane="0" color="green" depart="81.1531473947" departLane="0" id="73" route="route0" type="Car" /><vehicle arrivalLane="0" color="green" depart="81.1531473947" departLane="0" id="74" route="route0" type="Car" /><vehicle arrivalLane="0" color="green" depart="81.1531473947" departLane="0" id="75" route="route0" type="Car" /><vehicle arrivalLane="1" color="green" depart="81.1531473947" departLane="1" id="76" route="route0" type="Car" /><vehicle arrivalLane="0" color="green" depart="84.9917650761" departLane="0" id="77" route="route0" type="Car" /><vehicle arrivalLane="0" color="green" depart="84.9917650761" departLane="0" id="78" route="route0" type="Car" /><vehicle arrivalLane="0" color="green" depart="84.9917650761" departLane="0" id="79" route="route0" type="Car" /><vehicle arrivalLane="1" color="green" depart="84.9917650761" departLane="1" id="80" route="route0" type="Car" /><vehicle arrivalLane="0" color="green" depart="87.4828702244" departLane="0" id="81" route="route0" type="Car" /><vehicle arrivalLane="1" color="green" depart="87.4828702244" departLane="1" id="82" route="route0" type="Car" /><vehicle arrivalLane="0" color="green" depart="90.8405365527" departLane="0" id="83" route="route0" type="Car" /><vehicle arrivalLane="1" color="green" depart="90.8405365527" departLane="1" id="84" route="route0" type="Car" /><vehicle arrivalLane="1" color="green" depart="91.409617329" departLane="1" id="85" route="route0" type="Car" /><vehicle arrivalLane="0" color="green" depart="93.5711605006" departLane="0" id="86" route="route0" type="Car" /><vehicle arrivalLane="0" color="green" depart="93.5711605006" departLane="0" id="87" route="route0" type="Car" /><vehicle arrivalLane="1" color="green" depart="93.5711605006" departLane="1" id="88" route="route0" type="Car" /><vehicle arrivalLane="1" color="green" depart="96.0317698406" departLane="1" id="89" route="route0" type="Car" /><vehicle arrivalLane="0" color="red" depart="99.1053584437" departLane="0" id="vip" route="route0" type="CarVIP" /><vehicle arrivalLane="0" color="green" depart="99.1053584437" departLane="0" id="91" route="route0" type="Car" /><vehicle arrivalLane="1" color="green" depart="99.1053584437" departLane="1" id="92" route="route0" type="Car" /><vehicle arrivalLane="1" color="green" depart="99.2198563725" departLane="1" id="93" route="route0" type="Car" /><vehicle arrivalLane="0" color="green" depart="102.586226789" departLane="0" id="94" route="route0" type="Car" /><vehicle arrivalLane="1" color="green" depart="102.586226789" departLane="1" id="95" route="route0" type="Car" /><vehicle arrivalLane="0" color="green" depart="116.296160731" departLane="0" id="96" route="route0" type="Car" /><vehicle arrivalLane="0" color="green" depart="116.296160731" departLane="0" id="97" route="route0" type="Car" /><vehicle arrivalLane="0" color="green" depart="116.296160731" departLane="0" id="98" route="route0" type="Car" /><vehicle arrivalLane="1" color="green" depart="116.296160731" departLane="1" id="99" route="route0" type="Car" /><vehicle arrivalLane="1" color="green" depart="116.491354587" departLane="1" id="100" route="route0" type="Car" /><vehicle arrivalLane="0" color="green" depart="118.698392072" departLane="0" id="101" route="route0" type="Car" /><vehicle arrivalLane="0" color="green" depart="118.698392072" departLane="0" id="102" route="route0" type="Car" /><vehicle arrivalLane="1" color="green" depart="118.698392072" departLane="1" id="103" route="route0" type="Car" /><vehicle arrivalLane="1" color="green" depart="119.297006815" departLane="1" id="104" route="route0" type="Car" /><vehicle arrivalLane="1" color="green" depart="120.192614177" departLane="1" id="105" route="route0" type="Car" /><vehicle arrivalLane="1" color="green" depart="120.875823638" departLane="1" id="106" route="route0" type="Car" /><vehicle arrivalLane="1" color="green" depart="122.733925997" departLane="1" id="107" route="route0" type="Car" /><vehicle arrivalLane="0" color="green" depart="123.561165573" departLane="0" id="108" route="route0" type="Car" /><vehicle arrivalLane="1" color="green" depart="123.561165573" departLane="1" id="109" route="route0" type="Car" /><vehicle arrivalLane="1" color="green" depart="123.654976379" departLane="1" id="110" route="route0" type="Car" /><vehicle arrivalLane="1" color="green" depart="123.992977758" departLane="1" id="111" route="route0" type="Car" /><vehicle arrivalLane="0" color="green" depart="126.035076745" departLane="0" id="112" route="route0" type="Car" /><vehicle arrivalLane="1" color="green" depart="126.035076745" departLane="1" id="113" route="route0" type="Car" /><vehicle arrivalLane="1" color="green" depart="126.902049356" departLane="1" id="114" route="route0" type="Car" /><vehicle arrivalLane="0" color="green" depart="134.819015701" departLane="0" id="115" route="route0" type="Car" /><vehicle arrivalLane="0" color="green" depart="134.819015701" departLane="0" id="116" route="route0" type="Car" /><vehicle arrivalLane="0" color="green" depart="134.819015701" departLane="0" id="117" route="route0" type="Car" /><vehicle arrivalLane="0" color="green" depart="134.819015701" departLane="0" id="118" route="route0" type="Car" /><vehicle arrivalLane="1" color="green" depart="134.819015701" departLane="1" id="119" route="route0" type="Car" /><vehicle arrivalLane="1" color="green" depart="136.748304214" departLane="1" id="120" route="route0" type="Car" /><vehicle arrivalLane="1" color="green" depart="137.515313525" departLane="1" id="121" route="route0" type="Car" /><vehicle arrivalLane="0" color="green" depart="139.381327332" departLane="0" id="122" route="route0" type="Car" /><vehicle arrivalLane="1" color="green" depart="139.381327332" departLane="1" id="123" route="route0" type="Car" /><vehicle arrivalLane="0" color="green" depart="141.037327235" departLane="0" id="124" route="route0" type="Car" /><vehicle arrivalLane="0" color="green" depart="141.037327235" departLane="0" id="125" route="route0" type="Car" /><vehicle arrivalLane="1" color="green" depart="141.037327235" departLane="1" id="126" route="route0" type="Car" /><vehicle arrivalLane="0" color="green" depart="143.656105535" departLane="0" id="127" route="route0" type="Car" /><vehicle arrivalLane="0" color="green" depart="143.656105535" departLane="0" id="128" route="route0" type="Car" /><vehicle arrivalLane="0" color="green" depart="143.656105535" departLane="0" id="129" route="route0" type="Car" /><vehicle arrivalLane="1" color="green" depart="143.656105535" departLane="1" id="130" route="route0" type="Car" /><vehicle arrivalLane="0" color="green" depart="150.175165361" departLane="0" id="131" route="route0" type="Car" /><vehicle arrivalLane="0" color="green" depart="150.175165361" departLane="0" id="132" route="route0" type="Car" /><vehicle arrivalLane="1" color="green" depart="150.175165361" departLane="1" id="133" route="route0" type="Car" /><vehicle arrivalLane="0" color="green" depart="151.05369932" departLane="0" id="134" route="route0" type="Car" /><vehicle arrivalLane="1" color="green" depart="151.05369932" departLane="1" id="135" route="route0" type="Car" /><vehicle arrivalLane="0" color="green" depart="153.354251626" departLane="0" id="136" route="route0" type="Car" /><vehicle arrivalLane="1" color="green" depart="153.354251626" departLane="1" id="137" route="route0" type="Car" /><vehicle arrivalLane="0" color="green" depart="156.952064467" departLane="0" id="138" route="route0" type="Car" /><vehicle arrivalLane="0" color="green" depart="156.952064467" departLane="0" id="139" route="route0" type="Car" /><vehicle arrivalLane="0" color="green" depart="156.952064467" departLane="0" id="140" route="route0" type="Car" /><vehicle arrivalLane="1" color="green" depart="156.952064467" departLane="1" id="141" route="route0" type="Car" /><vehicle arrivalLane="0" color="green" depart="158.518151467" departLane="0" id="142" route="route0" type="Car" /><vehicle arrivalLane="1" color="green" depart="158.518151467" departLane="1" id="143" route="route0" type="Car" /><vehicle arrivalLane="0" color="green" depart="161.649415386" departLane="0" id="144" route="route0" type="Car" /><vehicle arrivalLane="0" color="green" depart="161.649415386" departLane="0" id="145" route="route0" type="Car" /><vehicle arrivalLane="1" color="green" depart="161.649415386" departLane="1" id="146" route="route0" type="Car" /><vehicle arrivalLane="0" color="green" depart="164.497001858" departLane="0" id="147" route="route0" type="Car" /><vehicle arrivalLane="1" color="green" depart="164.497001858" departLane="1" id="148" route="route0" type="Car" /><vehicle arrivalLane="0" color="green" depart="167.272325741" departLane="0" id="149" route="route0" type="Car" /><vehicle arrivalLane="0" color="green" depart="167.272325741" departLane="0" id="150" route="route0" type="Car" /><vehicle arrivalLane="0" color="green" depart="167.272325741" departLane="0" id="151" route="route0" type="Car" /><vehicle arrivalLane="1" color="green" depart="167.272325741" departLane="1" id="152" route="route0" type="Car" /><vehicle arrivalLane="1" color="green" depart="169.385875766" departLane="1" id="153" route="route0" type="Car" /><vehicle arrivalLane="1" color="green" depart="169.425400005" departLane="1" id="154" route="route0" type="Car" /><vehicle arrivalLane="0" color="green" depart="170.713378809" departLane="0" id="155" route="route0" type="Car" /><vehicle arrivalLane="1" color="green" depart="170.713378809" departLane="1" id="156" route="route0" type="Car" /><vehicle arrivalLane="0" color="green" depart="175.552947466" departLane="0" id="157" route="route0" type="Car" /><vehicle arrivalLane="0" color="green" depart="175.552947466" departLane="0" id="158" route="route0" type="Car" /><vehicle arrivalLane="1" color="green" depart="175.552947466" departLane="1" id="159" route="route0" type="Car" /><vehicle arrivalLane="1" color="green" depart="176.341267519" departLane="1" id="160" route="route0" type="Car" /><vehicle arrivalLane="0" color="green" depart="176.717760122" departLane="0" id="161" route="route0" type="Car" /><vehicle arrivalLane="1" color="green" depart="176.717760122" departLane="1" id="162" route="route0" type="Car" /><vehicle arrivalLane="1" color="green" depart="178.377245522" departLane="1" id="163" route="route0" type="Car" /><vehicle arrivalLane="1" color="green" depart="178.379175069" departLane="1" id="164" route="route0" type="Car" /><vehicle arrivalLane="1" color="green" depart="178.915434089" departLane="1" id="165" route="route0" type="Car" /><vehicle arrivalLane="0" color="green" depart="182.515330935" departLane="0" id="166" route="route0" type="Car" /><vehicle arrivalLane="0" color="green" depart="182.515330935" departLane="0" id="167" route="route0" type="Car" /><vehicle arrivalLane="0" color="green" depart="182.515330935" departLane="0" id="168" route="route0" type="Car" /><vehicle arrivalLane="1" color="green" depart="182.515330935" departLane="1" id="169" route="route0" type="Car" /><vehicle arrivalLane="1" color="green" depart="183.368528936" departLane="1" id="170" route="route0" type="Car" /><vehicle arrivalLane="0" color="green" depart="185.410126835" departLane="0" id="171" route="route0" type="Car" /><vehicle arrivalLane="1" color="green" depart="185.410126835" departLane="1" id="172" route="route0" type="Car" /><vehicle arrivalLane="1" color="green" depart="186.070995273" departLane="1" id="173" route="route0" type="Car" /><vehicle arrivalLane="1" color="green" depart="186.844291103" departLane="1" id="174" route="route0" type="Car" /><vehicle arrivalLane="0" color="green" depart="190.896759664" departLane="0" id="175" route="route0" type="Car" /><vehicle arrivalLane="0" color="green" depart="190.896759664" departLane="0" id="176" route="route0" type="Car" /><vehicle arrivalLane="0" color="green" depart="190.896759664" departLane="0" id="177" route="route0" type="Car" /><vehicle arrivalLane="1" color="green" depart="190.896759664" departLane="1" id="178" route="route0" type="Car" /><vehicle arrivalLane="0" color="green" depart="204.732950152" departLane="0" id="179" route="route0" type="Car" /><vehicle arrivalLane="0" color="green" depart="204.732950152" departLane="0" id="180" route="route0" type="Car" /><vehicle arrivalLane="0" color="green" depart="204.732950152" departLane="0" id="181" route="route0" type="Car" /><vehicle arrivalLane="0" color="green" depart="204.732950152" departLane="0" id="182" route="route0" type="Car" /><vehicle arrivalLane="0" color="green" depart="204.732950152" departLane="0" id="183" route="route0" type="Car" /><vehicle arrivalLane="1" color="green" depart="204.732950152" departLane="1" id="184" route="route0" type="Car" /><vehicle arrivalLane="1" color="green" depart="205.527815457" departLane="1" id="185" route="route0" type="Car" /><vehicle arrivalLane="1" color="green" depart="211.88823819" departLane="1" id="186" route="route0" type="Car" /><vehicle arrivalLane="1" color="green" depart="215.538837683" departLane="1" id="187" route="route0" type="Car" /><vehicle arrivalLane="1" color="green" depart="219.551385397" departLane="1" id="188" route="route0" type="Car" /><vehicle arrivalLane="1" color="green" depart="222.485551665" departLane="1" id="189" route="route0" type="Car" /><vehicle arrivalLane="1" color="green" depart="226.449866913" departLane="1" id="190" route="route0" type="Car" /><vehicle arrivalLane="1" color="green" depart="226.700864289" departLane="1" id="191" route="route0" type="Car" /><vehicle arrivalLane="1" color="green" depart="227.606563012" departLane="1" id="192" route="route0" type="Car" /><vehicle arrivalLane="1" color="green" depart="228.770956497" departLane="1" id="193" route="route0" type="Car" /><vehicle arrivalLane="1" color="green" depart="229.397822776" departLane="1" id="194" route="route0" type="Car" /><vehicle arrivalLane="1" color="green" depart="233.530593203" departLane="1" id="195" route="route0" type="Car" /><vehicle arrivalLane="1" color="green" depart="237.081337617" departLane="1" id="196" route="route0" type="Car" /><vehicle arrivalLane="1" color="green" depart="239.520503934" departLane="1" id="197" route="route0" type="Car" /><vehicle arrivalLane="1" color="green" depart="239.720232036" departLane="1" id="198" route="route0" type="Car" /><vehicle arrivalLane="1" color="green" depart="243.25589318" departLane="1" id="199" route="route0" type="Car" /></routes>