<routes><vType accel="2.9" decel="7.5" id="Car" length="4.3" maxSpeed="27.78" minGap="-1" sigma="0.0" tau="0" /><vType accel="2.9" decel="7.5" id="CarVIP" length="6.5" maxSpeed="27.78" minGap="-1" sigma="0.0" tau="0" /><route edges="1to2" id="route0" /><vehicle arrivalLane="0" color="green" depart="0.847217060701" departLane="0" id="0" route="route0" type="Car" /><vehicle arrivalLane="1" color="green" depart="0.847217060701" departLane="1" id="1" route="route0" type="Car" /><vehicle arrivalLane="1" color="green" depart="1.03427977326" departLane="1" id="2" route="route0" type="Car" /><vehicle arrivalLane="1" color="green" depart="1.8818160349" departLane="1" id="3" route="route0" type="Car" /><vehicle arrivalLane="1" color="green" depart="3.65754378185" departLane="1" id="4" route="route0" type="Car" /><vehicle arrivalLane="0" color="green" depart="7.02692187165" departLane="0" id="5" route="route0" type="Car" /><vehicle arrivalLane="0" color="green" depart="7.02692187165" departLane="0" id="6" route="route0" type="Car" /><vehicle arrivalLane="0" color="green" depart="7.02692187165" departLane="0" id="7" route="route0" type="Car" /><vehicle arrivalLane="1" color="green" depart="7.02692187165" departLane="1" id="8" route="route0" type="Car" /><vehicle arrivalLane="1" color="green" depart="7.46584355997" departLane="1" id="9" route="route0" type="Car" /><vehicle arrivalLane="1" color="green" depart="8.8952414942" departLane="1" id="10" route="route0" type="Car" /><vehicle arrivalLane="0" color="green" depart="10.7633442137" departLane="0" id="11" route="route0" type="Car" /><vehicle arrivalLane="1" color="green" depart="10.7633442137" departLane="1" id="12" route="route0" type="Car" /><vehicle arrivalLane="0" color="green" depart="12.4734940478" departLane="0" id="13" route="route0" type="Car" /><vehicle arrivalLane="1" color="green" depart="12.4734940478" departLane="1" id="14" route="route0" type="Car" /><vehicle arrivalLane="0" color="green" depart="15.8284251628" departLane="0" id="15" route="route0" type="Car" /><vehicle arrivalLane="1" color="green" depart="15.8284251628" departLane="1" id="16" route="route0" type="Car" /><vehicle arrivalLane="0" color="green" depart="17.4701946692" departLane="0" id="17" route="route0" type="Car" /><vehicle arrivalLane="1" color="green" depart="17.4701946692" departLane="1" id="18" route="route0" type="Car" /><vehicle arrivalLane="0" color="green" depart="24.7483749011" departLane="0" id="19" route="route0" type="Car" /><vehicle arrivalLane="0" color="green" depart="24.7483749011" departLane="0" id="20" route="route0" type="Car" /><vehicle arrivalLane="0" color="green" depart="24.7483749011" departLane="0" id="21" route="route0" type="Car" /><vehicle arrivalLane="0" color="green" depart="24.7483749011" departLane="0" id="22" route="route0" type="Car" /><vehicle arrivalLane="0" color="green" depart="24.7483749011" departLane="0" id="23" route="route0" type="Car" /><vehicle arrivalLane="0" color="green" depart="24.7483749011" departLane="0" id="24" route="route0" type="Car" /><vehicle arrivalLane="1" color="green" depart="24.7483749011" departLane="1" id="25" route="route0" type="Car" /><vehicle arrivalLane="0" color="green" depart="25.5248524156" departLane="0" id="26" route="route0" type="Car" /><vehicle arrivalLane="0" color="green" depart="25.5248524156" departLane="0" id="27" route="route0" type="Car" /><vehicle arrivalLane="1" color="green" depart="25.5248524156" departLane="1" id="28" route="route0" type="Car" /><vehicle arrivalLane="1" color="green" depart="26.5468602446" departLane="1" id="29" route="route0" type="Car" /><vehicle arrivalLane="0" color="green" depart="28.0168009486" departLane="0" id="30" route="route0" type="Car" /><vehicle arrivalLane="1" color="green" depart="28.0168009486" departLane="1" id="31" route="route0" type="Car" /><vehicle arrivalLane="1" color="green" depart="29.4326761446" departLane="1" id="32" route="route0" type="Car" /><vehicle arrivalLane="0" color="green" depart="31.0316996422" departLane="0" id="33" route="route0" type="Car" /><vehicle arrivalLane="1" color="green" depart="31.0316996422" departLane="1" id="34" route="route0" type="Car" /><vehicle arrivalLane="0" color="green" depart="38.2994015819" departLane="0" id="35" route="route0" type="Car" /><vehicle arrivalLane="1" color="green" depart="38.2994015819" departLane="1" id="36" route="route0" type="Car" /><vehicle arrivalLane="1" color="green" depart="40.4587068974" departLane="1" id="37" route="route0" type="Car" /><vehicle arrivalLane="1" color="green" depart="45.0421367206" departLane="1" id="38" route="route0" type="Car" /><vehicle arrivalLane="1" color="green" depart="45.2376956138" departLane="1" id="39" route="route0" type="Car" /><vehicle arrivalLane="0" color="green" depart="46.4067066454" departLane="0" id="40" route="route0" type="Car" /><vehicle arrivalLane="0" color="green" depart="46.4067066454" departLane="0" id="41" route="route0" type="Car" /><vehicle arrivalLane="1" color="green" depart="46.4067066454" departLane="1" id="42" route="route0" type="Car" /><vehicle arrivalLane="1" color="green" depart="49.5462161177" departLane="1" id="43" route="route0" type="Car" /><vehicle arrivalLane="1" color="green" depart="49.6022284088" departLane="1" id="44" route="route0" type="Car" /><vehicle arrivalLane="1" color="green" depart="49.7555212821" departLane="1" id="45" route="route0" type="Car" /><vehicle arrivalLane="1" color="green" depart="50.0837412816" departLane="1" id="46" route="route0" type="Car" /><vehicle arrivalLane="1" color="green" depart="52.6318963563" departLane="1" id="47" route="route0" type="Car" /><vehicle arrivalLane="1" color="green" depart="52.8912059928" departLane="1" id="48" route="route0" type="Car" /><vehicle arrivalLane="1" color="green" depart="53.817528736" departLane="1" id="49" route="route0" type="Car" /><vehicle arrivalLane="1" color="green" depart="54.2604229662" departLane="1" id="50" route="route0" type="Car" /><vehicle arrivalLane="1" color="green" depart="55.0757874485" departLane="1" id="51" route="route0" type="Car" /><vehicle arrivalLane="1" color="green" depart="55.7406617007" departLane="1" id="52" route="route0" type="Car" /><vehicle arrivalLane="1" color="green" depart="56.8636353659" departLane="1" id="53" route="route0" type="Car" /><vehicle arrivalLane="0" color="green" depart="65.2754073522" departLane="0" id="54" route="route0" type="Car" /><vehicle arrivalLane="0" color="green" depart="65.2754073522" departLane="0" id="55" route="route0" type="Car" /><vehicle arrivalLane="0" color="green" depart="65.2754073522" departLane="0" id="56" route="route0" type="Car" /><vehicle arrivalLane="0" color="green" depart="65.2754073522" departLane="0" id="57" route="route0" type="Car" /><vehicle arrivalLane="1" color="green" depart="65.2754073522" departLane="1" id="58" route="route0" type="Car" /><vehicle arrivalLane="1" color="green" depart="65.8362054881" departLane="1" id="59" route="route0" type="Car" /><vehicle arrivalLane="0" color="green" depart="67.5366974342" departLane="0" id="60" route="route0" type="Car" /><vehicle arrivalLane="0" color="green" depart="67.5366974342" departLane="0" id="61" route="route0" type="Car" /><vehicle arrivalLane="0" color="green" depart="67.5366974342" departLane="0" id="62" route="route0" type="Car" /><vehicle arrivalLane="1" color="green" depart="67.5366974342" departLane="1" id="63" route="route0" type="Car" /><vehicle arrivalLane="1" color="green" depart="70.8395154263" departLane="1" id="64" route="route0" type="Car" /><vehicle arrivalLane="1" color="green" depart="71.7991215055" departLane="1" id="65" route="route0" type="Car" /><vehicle arrivalLane="0" color="green" depart="75.5903655592" departLane="0" id="66" route="route0" type="Car" /><vehicle arrivalLane="1" color="green" depart="75.5903655592" departLane="1" id="67" route="route0" type="Car" /><vehicle arrivalLane="0" color="green" depart="79.2472701951" departLane="0" id="68" route="route0" type="Car" /><vehicle arrivalLane="0" color="green" depart="79.2472701951" departLane="0" id="69" route="route0" type="Car" /><vehicle arrivalLane="0" color="green" depart="79.2472701951" departLane="0" id="70" route="route0" type="Car" /><vehicle arrivalLane="0" color="green" depart="79.2472701951" departLane="0" id="71" route="route0" type="Car" /><vehicle arrivalLane="1" color="green" depart="79.2472701951" departLane="1" id="72" route="route0" type="Car" /><vehicle arrivalLane="1" color="green" depart="80.0946686284" departLane="1" id="73" route="route0" type="Car" /><vehicle arrivalLane="0" color="green" depart="81.0615287168" departLane="0" id="74" route="route0" type="Car" /><vehicle arrivalLane="0" color="green" depart="81.0615287168" departLane="0" id="75" route="route0" type="Car" /><vehicle arrivalLane="1" color="green" depart="81.0615287168" departLane="1" id="76" route="route0" type="Car" /><vehicle arrivalLane="1" color="green" depart="81.4603235315" departLane="1" id="77" route="route0" type="Car" /><vehicle arrivalLane="0" color="green" depart="82.2409428539" departLane="0" id="78" route="route0" type="Car" /><vehicle arrivalLane="1" color="green" depart="82.2409428539" departLane="1" id="79" route="route0" type="Car" /><vehicle arrivalLane="0" color="green" depart="91.0076199656" departLane="0" id="80" route="route0" type="Car" /><vehicle arrivalLane="0" color="green" depart="91.0076199656" departLane="0" id="81" route="route0" type="Car" /><vehicle arrivalLane="0" color="green" depart="91.0076199656" departLane="0" id="82" route="route0" type="Car" /><vehicle arrivalLane="0" color="green" depart="91.0076199656" departLane="0" id="83" route="route0" type="Car" /><vehicle arrivalLane="1" color="green" depart="91.0076199656" departLane="1" id="84" route="route0" type="Car" /><vehicle arrivalLane="0" color="green" depart="91.8309436467" departLane="0" id="85" route="route0" type="Car" /><vehicle arrivalLane="1" color="green" depart="91.8309436467" departLane="1" id="86" route="route0" type="Car" /><vehicle arrivalLane="0" color="green" depart="93.9008252834" departLane="0" id="87" route="route0" type="Car" /><vehicle arrivalLane="1" color="green" depart="93.9008252834" departLane="1" id="88" route="route0" type="Car" /><vehicle arrivalLane="1" color="green" depart="94.271120149" departLane="1" id="89" route="route0" type="Car" /><vehicle arrivalLane="0" color="green" depart="94.9908858573" departLane="0" id="90" route="route0" type="Car" /><vehicle arrivalLane="1" color="green" depart="94.9908858573" departLane="1" id="91" route="route0" type="Car" /><vehicle arrivalLane="0" color="green" depart="98.8469660034" departLane="0" id="92" route="route0" type="Car" /><vehicle arrivalLane="0" color="green" depart="98.8469660034" departLane="0" id="93" route="route0" type="Car" /><vehicle arrivalLane="1" color="green" depart="98.8469660034" departLane="1" id="94" route="route0" type="Car" /><vehicle arrivalLane="1" color="green" depart="99.0644268692" departLane="1" id="95" route="route0" type="Car" /><vehicle arrivalLane="0" color="green" depart="100.19404278" departLane="0" id="96" route="route0" type="Car" /><vehicle arrivalLane="0" color="green" depart="100.19404278" departLane="0" id="97" route="route0" type="Car" /><vehicle arrivalLane="1" color="green" depart="100.19404278" departLane="1" id="98" route="route0" type="Car" /><vehicle arrivalLane="0" color="green" depart="103.696003422" departLane="0" id="99" route="route0" type="Car" /><vehicle arrivalLane="0" color="green" depart="103.696003422" departLane="0" id="100" route="route0" type="Car" /><vehicle arrivalLane="1" color="green" depart="103.696003422" departLane="1" id="101" route="route0" type="Car" /><vehicle arrivalLane="0" color="green" depart="106.213864117" departLane="0" id="102" route="route0" type="Car" /><vehicle arrivalLane="0" color="red" depart="106.213864117" departLane="0" id="vip" route="route0" type="CarVIP" /><vehicle arrivalLane="1" color="green" depart="106.213864117" departLane="1" id="104" route="route0" type="Car" /><vehicle arrivalLane="1" color="green" depart="107.695693467" departLane="1" id="105" route="route0" type="Car" /><vehicle arrivalLane="1" color="green" depart="108.749294193" departLane="1" id="106" route="route0" type="Car" /><vehicle arrivalLane="1" color="green" depart="110.06286818" departLane="1" id="107" route="route0" type="Car" /><vehicle arrivalLane="1" color="green" depart="112.96071572" departLane="1" id="108" route="route0" type="Car" /><vehicle arrivalLane="0" color="green" depart="116.007819273" departLane="0" id="109" route="route0" type="Car" /><vehicle arrivalLane="1" color="green" depart="116.007819273" departLane="1" id="110" route="route0" type="Car" /><vehicle arrivalLane="1" color="green" depart="117.007908535" departLane="1" id="111" route="route0" type="Car" /><vehicle arrivalLane="1" color="green" depart="117.024667209" departLane="1" id="112" route="route0" type="Car" /><vehicle arrivalLane="0" color="green" depart="122.003107181" departLane="0" id="113" route="route0" type="Car" /><vehicle arrivalLane="0" color="green" depart="122.003107181" departLane="0" id="114" route="route0" type="Car" /><vehicle arrivalLane="0" color="green" depart="122.003107181" departLane="0" id="115" route="route0" type="Car" /><vehicle arrivalLane="1" color="green" depart="122.003107181" departLane="1" id="116" route="route0" type="Car" /><vehicle arrivalLane="1" color="green" depart="122.232477192" departLane="1" id="117" route="route0" type="Car" /><vehicle arrivalLane="0" color="green" depart="127.364482514" departLane="0" id="118" route="route0" type="Car" /><vehicle arrivalLane="0" color="green" depart="127.364482514" departLane="0" id="119" route="route0" type="Car" /><vehicle arrivalLane="0" color="green" depart="127.364482514" departLane="0" id="120" route="route0" type="Car" /><vehicle arrivalLane="0" color="green" depart="127.364482514" departLane="0" id="121" route="route0" type="Car" /><vehicle arrivalLane="1" color="green" depart="127.364482514" departLane="1" id="122" route="route0" type="Car" /><vehicle arrivalLane="1" color="green" depart="128.578439975" departLane="1" id="123" route="route0" type="Car" /><vehicle arrivalLane="1" color="green" depart="129.117317324" departLane="1" id="124" route="route0" type="Car" /><vehicle arrivalLane="0" color="green" depart="131.809912873" departLane="0" id="125" route="route0" type="Car" /><vehicle arrivalLane="1" color="green" depart="131.809912873" departLane="1" id="126" route="route0" type="Car" /><vehicle arrivalLane="0" color="green" depart="133.944931823" departLane="0" id="127" route="route0" type="Car" /><vehicle arrivalLane="0" color="green" depart="133.944931823" departLane="0" id="128" route="route0" type="Car" /><vehicle arrivalLane="1" color="green" depart="133.944931823" departLane="1" id="129" route="route0" type="Car" /><vehicle arrivalLane="0" color="green" depart="134.450885055" departLane="0" id="130" route="route0" type="Car" /><vehicle arrivalLane="1" color="green" depart="134.450885055" departLane="1" id="131" route="route0" type="Car" /><vehicle arrivalLane="1" color="green" depart="134.79933208" departLane="1" id="132" route="route0" type="Car" /><vehicle arrivalLane="0" color="green" depart="137.199140379" departLane="0" id="133" route="route0" type="Car" /><vehicle arrivalLane="1" color="green" depart="137.199140379" departLane="1" id="134" route="route0" type="Car" /><vehicle arrivalLane="1" color="green" depart="139.12089112" departLane="1" id="135" route="route0" type="Car" /><vehicle arrivalLane="1" color="green" depart="139.573013625" departLane="1" id="136" route="route0" type="Car" /><vehicle arrivalLane="0" color="green" depart="141.734810789" departLane="0" id="137" route="route0" type="Car" /><vehicle arrivalLane="0" color="green" depart="141.734810789" departLane="0" id="138" route="route0" type="Car" /><vehicle arrivalLane="1" color="green" depart="141.734810789" departLane="1" id="139" route="route0" type="Car" /><vehicle arrivalLane="1" color="green" depart="146.201065018" departLane="1" id="140" route="route0" type="Car" /><vehicle arrivalLane="1" color="green" depart="146.602320911" departLane="1" id="141" route="route0" type="Car" /><vehicle arrivalLane="0" color="green" depart="151.619914879" departLane="0" id="142" route="route0" type="Car" /><vehicle arrivalLane="0" color="green" depart="151.619914879" departLane="0" id="143" route="route0" type="Car" /><vehicle arrivalLane="0" color="green" depart="151.619914879" departLane="0" id="144" route="route0" type="Car" /><vehicle arrivalLane="0" color="green" depart="151.619914879" departLane="0" id="145" route="route0" type="Car" /><vehicle arrivalLane="1" color="green" depart="151.619914879" departLane="1" id="146" route="route0" type="Car" /><vehicle arrivalLane="1" color="green" depart="151.929999313" departLane="1" id="147" route="route0" type="Car" /><vehicle arrivalLane="1" color="green" depart="152.729562242" departLane="1" id="148" route="route0" type="Car" /><vehicle arrivalLane="0" color="green" depart="157.860399527" departLane="0" id="149" route="route0" type="Car" /><vehicle arrivalLane="0" color="green" depart="157.860399527" departLane="0" id="150" route="route0" type="Car" /><vehicle arrivalLane="0" color="green" depart="157.860399527" departLane="0" id="151" route="route0" type="Car" /><vehicle arrivalLane="1" color="green" depart="157.860399527" departLane="1" id="152" route="route0" type="Car" /><vehicle arrivalLane="0" color="green" depart="160.926801127" departLane="0" id="153" route="route0" type="Car" /><vehicle arrivalLane="0" color="green" depart="160.926801127" departLane="0" id="154" route="route0" type="Car" /><vehicle arrivalLane="1" color="green" depart="160.926801127" departLane="1" id="155" route="route0" type="Car" /><vehicle arrivalLane="0" color="green" depart="162.899302075" departLane="0" id="156" route="route0" type="Car" /><vehicle arrivalLane="0" color="green" depart="162.899302075" departLane="0" id="157" route="route0" type="Car" /><vehicle arrivalLane="0" color="green" depart="162.899302075" departLane="0" id="158" route="route0" type="Car" /><vehicle arrivalLane="1" color="green" depart="162.899302075" departLane="1" id="159" route="route0" type="Car" /><vehicle arrivalLane="0" color="green" depart="165.124460498" departLane="0" id="160" route="route0" type="Car" /><vehicle arrivalLane="0" color="green" depart="165.124460498" departLane="0" id="161" route="route0" type="Car" /><vehicle arrivalLane="0" color="green" depart="165.124460498" departLane="0" id="162" route="route0" type="Car" /><vehicle arrivalLane="1" color="green" depart="165.124460498" departLane="1" id="163" route="route0" type="Car" /><vehicle arrivalLane="0" color="green" depart="173.495591938" departLane="0" id="164" route="route0" type="Car" /><vehicle arrivalLane="0" color="green" depart="173.495591938" departLane="0" id="165" route="route0" type="Car" /><vehicle arrivalLane="0" color="green" depart="173.495591938" departLane="0" id="166" route="route0" type="Car" /><vehicle arrivalLane="1" color="green" depart="173.495591938" departLane="1" id="167" route="route0" type="Car" /><vehicle arrivalLane="0" color="green" depart="174.760040861" departLane="0" id="168" route="route0" type="Car" /><vehicle arrivalLane="1" color="green" depart="174.760040861" departLane="1" id="169" route="route0" type="Car" /><vehicle arrivalLane="0" color="green" depart="176.80189669" departLane="0" id="170" route="route0" type="Car" /><vehicle arrivalLane="0" color="green" depart="176.80189669" departLane="0" id="171" route="route0" type="Car" /><vehicle arrivalLane="1" color="green" depart="176.80189669" departLane="1" id="172" route="route0" type="Car" /><vehicle arrivalLane="0" color="green" depart="187.792186709" departLane="0" id="173" route="route0" type="Car" /><vehicle arrivalLane="0" color="green" depart="187.792186709" departLane="0" id="174" route="route0" type="Car" /><vehicle arrivalLane="0" color="green" depart="187.792186709" departLane="0" id="175" route="route0" type="Car" /><vehicle arrivalLane="0" color="green" depart="187.792186709" departLane="0" id="176" route="route0" type="Car" /><vehicle arrivalLane="1" color="green" depart="187.792186709" departLane="1" id="177" route="route0" type="Car" /><vehicle arrivalLane="0" color="green" depart="197.444594703" departLane="0" id="178" route="route0" type="Car" /><vehicle arrivalLane="0" color="green" depart="197.444594703" departLane="0" id="179" route="route0" type="Car" /><vehicle arrivalLane="0" color="green" depart="197.444594703" departLane="0" id="180" route="route0" type="Car" /><vehicle arrivalLane="0" color="green" depart="197.444594703" departLane="0" id="181" route="route0" type="Car" /><vehicle arrivalLane="0" color="green" depart="197.444594703" departLane="0" id="182" route="route0" type="Car" /><vehicle arrivalLane="1" color="green" depart="197.444594703" departLane="1" id="183" route="route0" type="Car" /><vehicle arrivalLane="1" color="green" depart="197.698013573" departLane="1" id="184" route="route0" type="Car" /><vehicle arrivalLane="0" color="green" depart="199.832240162" departLane="0" id="185" route="route0" type="Car" /><vehicle arrivalLane="1" color="green" depart="199.832240162" departLane="1" id="186" route="route0" type="Car" /><vehicle arrivalLane="0" color="green" depart="204.655719323" departLane="0" id="187" route="route0" type="Car" /><vehicle arrivalLane="1" color="green" depart="204.655719323" departLane="1" id="188" route="route0" type="Car" /><vehicle arrivalLane="1" color="green" depart="205.9298019" departLane="1" id="189" route="route0" type="Car" /><vehicle arrivalLane="1" color="green" depart="207.514890022" departLane="1" id="190" route="route0" type="Car" /><vehicle arrivalLane="0" color="green" depart="208.738266633" departLane="0" id="191" route="route0" type="Car" /><vehicle arrivalLane="1" color="green" depart="208.738266633" departLane="1" id="192" route="route0" type="Car" /><vehicle arrivalLane="0" color="green" depart="218.4120714" departLane="0" id="193" route="route0" type="Car" /><vehicle arrivalLane="1" color="green" depart="218.4120714" departLane="1" id="194" route="route0" type="Car" /><vehicle arrivalLane="1" color="green" depart="221.722412333" departLane="1" id="195" route="route0" type="Car" /><vehicle arrivalLane="1" color="green" depart="223.547262825" departLane="1" id="196" route="route0" type="Car" /><vehicle arrivalLane="1" color="green" depart="225.343651699" departLane="1" id="197" route="route0" type="Car" /><vehicle arrivalLane="1" color="green" depart="228.512513234" departLane="1" id="198" route="route0" type="Car" /><vehicle arrivalLane="1" color="green" depart="233.553201236" departLane="1" id="199" route="route0" type="Car" /></routes>