<routes><vType accel="2.9" decel="7.5" id="Car" length="4.3" maxSpeed="27.78" minGap="-1" sigma="0.0" tau="0" /><vType accel="2.9" decel="7.5" id="CarVIP" length="6.5" maxSpeed="27.78" minGap="-1" sigma="0.0" tau="0" /><route edges="1to2" id="route0" /><vehicle arrivalLane="1" color="green" depart="1.04710657803" departLane="1" id="0" route="route0" type="Car" /><vehicle arrivalLane="0" color="green" depart="1.90202675844" departLane="0" id="1" route="route0" type="Car" /><vehicle arrivalLane="1" color="green" depart="1.90202675844" departLane="1" id="2" route="route0" type="Car" /><vehicle arrivalLane="0" color="green" depart="3.47463327655" departLane="0" id="3" route="route0" type="Car" /><vehicle arrivalLane="0" color="green" depart="3.47463327655" departLane="0" id="4" route="route0" type="Car" /><vehicle arrivalLane="1" color="green" depart="3.47463327655" departLane="1" id="5" route="route0" type="Car" /><vehicle arrivalLane="0" color="green" depart="5.57305937066" departLane="0" id="6" route="route0" type="Car" /><vehicle arrivalLane="0" color="green" depart="5.57305937066" departLane="0" id="7" route="route0" type="Car" /><vehicle arrivalLane="1" color="green" depart="5.57305937066" departLane="1" id="8" route="route0" type="Car" /><vehicle arrivalLane="1" color="green" depart="5.71609132136" departLane="1" id="9" route="route0" type="Car" /><vehicle arrivalLane="1" color="green" depart="10.3304352073" departLane="1" id="10" route="route0" type="Car" /><vehicle arrivalLane="1" color="green" depart="10.5082189662" departLane="1" id="11" route="route0" type="Car" /><vehicle arrivalLane="1" color="green" depart="12.6932514052" departLane="1" id="12" route="route0" type="Car" /><vehicle arrivalLane="0" color="green" depart="14.1022518256" departLane="0" id="13" route="route0" type="Car" /><vehicle arrivalLane="1" color="green" depart="14.1022518256" departLane="1" id="14" route="route0" type="Car" /><vehicle arrivalLane="0" color="green" depart="18.9329679734" departLane="0" id="15" route="route0" type="Car" /><vehicle arrivalLane="0" color="green" depart="18.9329679734" departLane="0" id="16" route="route0" type="Car" /><vehicle arrivalLane="1" color="green" depart="18.9329679734" departLane="1" id="17" route="route0" type="Car" /><vehicle arrivalLane="1" color="green" depart="19.080972458" departLane="1" id="18" route="route0" type="Car" /><vehicle arrivalLane="0" color="green" depart="22.7785827702" departLane="0" id="19" route="route0" type="Car" /><vehicle arrivalLane="0" color="green" depart="22.7785827702" departLane="0" id="20" route="route0" type="Car" /><vehicle arrivalLane="1" color="green" depart="22.7785827702" departLane="1" id="21" route="route0" type="Car" /><vehicle arrivalLane="0" color="green" depart="25.4203438271" departLane="0" id="22" route="route0" type="Car" /><vehicle arrivalLane="1" color="green" depart="25.4203438271" departLane="1" id="23" route="route0" type="Car" /><vehicle arrivalLane="0" color="green" depart="32.8663812969" departLane="0" id="24" route="route0" type="Car" /><vehicle arrivalLane="0" color="green" depart="32.8663812969" departLane="0" id="25" route="route0" type="Car" /><vehicle arrivalLane="0" color="green" depart="32.8663812969" departLane="0" id="26" route="route0" type="Car" /><vehicle arrivalLane="0" color="green" depart="32.8663812969" departLane="0" id="27" route="route0" type="Car" /><vehicle arrivalLane="1" color="green" depart="32.8663812969" departLane="1" id="28" route="route0" type="Car" /><vehicle arrivalLane="0" color="green" depart="35.7507524204" departLane="0" id="29" route="route0" type="Car" /><vehicle arrivalLane="0" color="green" depart="35.7507524204" departLane="0" id="30" route="route0" type="Car" /><vehicle arrivalLane="1" color="green" depart="35.7507524204" departLane="1" id="31" route="route0" type="Car" /><vehicle arrivalLane="1" color="green" depart="37.4225928402" departLane="1" id="32" route="route0" type="Car" /><vehicle arrivalLane="1" color="green" depart="40.4849387222" departLane="1" id="33" route="route0" type="Car" /><vehicle arrivalLane="1" color="green" depart="41.4753012728" departLane="1" id="34" route="route0" type="Car" /><vehicle arrivalLane="0" color="green" depart="44.0191227984" departLane="0" id="35" route="route0" type="Car" /><vehicle arrivalLane="1" color="green" depart="44.0191227984" departLane="1" id="36" route="route0" type="Car" /><vehicle arrivalLane="0" color="green" depart="46.0891630162" departLane="0" id="37" route="route0" type="Car" /><vehicle arrivalLane="0" color="green" depart="46.0891630162" departLane="0" id="38" route="route0" type="Car" /><vehicle arrivalLane="1" color="green" depart="46.0891630162" departLane="1" id="39" route="route0" type="Car" /><vehicle arrivalLane="1" color="green" depart="46.5369365828" departLane="1" id="40" route="route0" type="Car" /><vehicle arrivalLane="0" color="green" depart="48.271588652" departLane="0" id="41" route="route0" type="Car" /><vehicle arrivalLane="0" color="green" depart="48.271588652" departLane="0" id="42" route="route0" type="Car" /><vehicle arrivalLane="0" color="green" depart="48.271588652" departLane="0" id="43" route="route0" type="Car" /><vehicle arrivalLane="1" color="green" depart="48.271588652" departLane="1" id="44" route="route0" type="Car" /><vehicle arrivalLane="0" color="green" depart="50.9346843126" departLane="0" id="45" route="route0" type="Car" /><vehicle arrivalLane="0" color="green" depart="50.9346843126" departLane="0" id="46" route="route0" type="Car" /><vehicle arrivalLane="0" color="green" depart="50.9346843126" departLane="0" id="47" route="route0" type="Car" /><vehicle arrivalLane="0" color="green" depart="50.9346843126" departLane="0" id="48" route="route0" type="Car" /><vehicle arrivalLane="0" color="green" depart="50.9346843126" departLane="0" id="49" route="route0" type="Car" /><vehicle arrivalLane="0" color="green" depart="50.9346843126" departLane="0" id="50" route="route0" type="Car" /><vehicle arrivalLane="1" color="green" depart="50.9346843126" departLane="1" id="51" route="route0" type="Car" /><vehicle arrivalLane="1" color="green" depart="51.3205441008" departLane="1" id="52" route="route0" type="Car" /><vehicle arrivalLane="1" color="green" depart="51.7782501821" departLane="1" id="53" route="route0" type="Car" /><vehicle arrivalLane="0" color="green" depart="53.2670313212" departLane="0" id="54" route="route0" type="Car" /><vehicle arrivalLane="1" color="green" depart="53.2670313212" departLane="1" id="55" route="route0" type="Car" /><vehicle arrivalLane="1" color="green" depart="56.1597406862" departLane="1" id="56" route="route0" type="Car" /><vehicle arrivalLane="0" color="green" depart="59.2460525433" departLane="0" id="57" route="route0" type="Car" /><vehicle arrivalLane="1" color="green" depart="59.2460525433" departLane="1" id="58" route="route0" type="Car" /><vehicle arrivalLane="0" color="green" depart="63.4935729574" departLane="0" id="59" route="route0" type="Car" /><vehicle arrivalLane="1" color="green" depart="63.4935729574" departLane="1" id="60" route="route0" type="Car" /><vehicle arrivalLane="1" color="green" depart="65.0362650982" departLane="1" id="61" route="route0" type="Car" /><vehicle arrivalLane="0" color="green" depart="67.3745537417" departLane="0" id="62" route="route0" type="Car" /><vehicle arrivalLane="1" color="green" depart="67.3745537417" departLane="1" id="63" route="route0" type="Car" /><vehicle arrivalLane="0" color="green" depart="68.5150162469" departLane="0" id="64" route="route0" type="Car" /><vehicle arrivalLane="1" color="green" depart="68.5150162469" departLane="1" id="65" route="route0" type="Car" /><vehicle arrivalLane="1" color="green" depart="68.8145656321" departLane="1" id="66" route="route0" type="Car" /><vehicle arrivalLane="0" color="green" depart="76.9958628549" departLane="0" id="67" route="route0" type="Car" /><vehicle arrivalLane="0" color="green" depart="76.9958628549" departLane="0" id="68" route="route0" type="Car" /><vehicle arrivalLane="0" color="green" depart="76.9958628549" departLane="0" id="69" route="route0" type="Car" /><vehicle arrivalLane="0" color="green" depart="76.9958628549" departLane="0" id="70" route="route0" type="Car" /><vehicle arrivalLane="0" color="green" depart="76.9958628549" departLane="0" id="71" route="route0" type="Car" /><vehicle arrivalLane="1" color="green" depart="76.9958628549" departLane="1" id="72" route="route0" type="Car" /><vehicle arrivalLane="0" color="green" depart="78.4902238052" departLane="0" id="73" route="route0" type="Car" /><vehicle arrivalLane="1" color="green" depart="78.4902238052" departLane="1" id="74" route="route0" type="Car" /><vehicle arrivalLane="1" color="green" depart="81.7859842973" departLane="1" id="75" route="route0" type="Car" /><vehicle arrivalLane="1" color="green" depart="82.0669488355" departLane="1" id="76" route="route0" type="Car" /><vehicle arrivalLane="1" color="green" depart="84.1700814305" departLane="1" id="77" route="route0" type="Car" /><vehicle arrivalLane="1" color="green" depart="84.4589397725" departLane="1" id="78" route="route0" type="Car" /><vehicle arrivalLane="1" color="green" depart="85.0544386388" departLane="1" id="79" route="route0" type="Car" /><vehicle arrivalLane="1" color="green" depart="85.2754971468" departLane="1" id="80" route="route0" type="Car" /><vehicle arrivalLane="0" color="green" depart="86.050137914" departLane="0" id="81" route="route0" type="Car" /><vehicle arrivalLane="1" color="green" depart="86.050137914" departLane="1" id="82" route="route0" type="Car" /><vehicle arrivalLane="0" color="green" depart="89.5278599689" departLane="0" id="83" route="route0" type="Car" /><vehicle arrivalLane="1" color="green" depart="89.5278599689" departLane="1" id="84" route="route0" type="Car" /><vehicle arrivalLane="0" color="green" depart="95.0091277044" departLane="0" id="85" route="route0" type="Car" /><vehicle arrivalLane="0" color="green" depart="95.0091277044" departLane="0" id="86" route="route0" type="Car" /><vehicle arrivalLane="0" color="green" depart="95.0091277044" departLane="0" id="87" route="route0" type="Car" /><vehicle arrivalLane="0" color="green" depart="95.0091277044" departLane="0" id="88" route="route0" type="Car" /><vehicle arrivalLane="1" color="green" depart="95.0091277044" departLane="1" id="89" route="route0" type="Car" /><vehicle arrivalLane="0" color="green" depart="96.419133308" departLane="0" id="90" route="route0" type="Car" /><vehicle arrivalLane="0" color="green" depart="96.419133308" departLane="0" id="91" route="route0" type="Car" /><vehicle arrivalLane="1" color="green" depart="96.419133308" departLane="1" id="92" route="route0" type="Car" /><vehicle arrivalLane="1" color="green" depart="96.4927028689" departLane="1" id="93" route="route0" type="Car" /><vehicle arrivalLane="1" color="green" depart="96.7881620009" departLane="1" id="94" route="route0" type="Car" /><vehicle arrivalLane="0" color="green" depart="98.6890070907" departLane="0" id="95" route="route0" type="Car" /><vehicle arrivalLane="0" color="green" depart="98.6890070907" departLane="0" id="96" route="route0" type="Car" /><vehicle arrivalLane="1" color="green" depart="98.6890070907" departLane="1" id="97" route="route0" type="Car" /><vehicle arrivalLane="0" color="red" depart="101.892292875" departLane="0" id="vip" route="route0" type="CarVIP" /><vehicle arrivalLane="1" color="green" depart="101.892292875" departLane="1" id="99" route="route0" type="Car" /><vehicle arrivalLane="1" color="green" depart="102.044296758" departLane="1" id="100" route="route0" type="Car" /><vehicle arrivalLane="0" color="green" depart="104.83212766" departLane="0" id="101" route="route0" type="Car" /><vehicle arrivalLane="0" color="green" depart="104.83212766" departLane="0" id="102" route="route0" type="Car" /><vehicle arrivalLane="1" color="green" depart="104.83212766" departLane="1" id="103" route="route0" type="Car" /><vehicle arrivalLane="1" color="green" depart="104.96142485" departLane="1" id="104" route="route0" type="Car" /><vehicle arrivalLane="0" color="green" depart="110.221458726" departLane="0" id="105" route="route0" type="Car" /><vehicle arrivalLane="1" color="green" depart="110.221458726" departLane="1" id="106" route="route0" type="Car" /><vehicle arrivalLane="1" color="green" depart="112.322663375" departLane="1" id="107" route="route0" type="Car" /><vehicle arrivalLane="1" color="green" depart="115.074969443" departLane="1" id="108" route="route0" type="Car" /><vehicle arrivalLane="1" color="green" depart="115.37504735" departLane="1" id="109" route="route0" type="Car" /><vehicle arrivalLane="0" color="green" depart="117.120592395" departLane="0" id="110" route="route0" type="Car" /><vehicle arrivalLane="0" color="green" depart="117.120592395" departLane="0" id="111" route="route0" type="Car" /><vehicle arrivalLane="1" color="green" depart="117.120592395" departLane="1" id="112" route="route0" type="Car" /><vehicle arrivalLane="1" color="green" depart="117.692655851" departLane="1" id="113" route="route0" type="Car" /><vehicle arrivalLane="1" color="green" depart="118.586532839" departLane="1" id="114" route="route0" type="Car" /><vehicle arrivalLane="1" color="green" depart="118.843075264" departLane="1" id="115" route="route0" type="Car" /><vehicle arrivalLane="0" color="green" depart="129.217667638" departLane="0" id="116" route="route0" type="Car" /><vehicle arrivalLane="0" color="green" depart="129.217667638" departLane="0" id="117" route="route0" type="Car" /><vehicle arrivalLane="1" color="green" depart="129.217667638" departLane="1" id="118" route="route0" type="Car" /><vehicle arrivalLane="0" color="green" depart="129.389022303" departLane="0" id="119" route="route0" type="Car" /><vehicle arrivalLane="0" color="green" depart="129.389022303" departLane="0" id="120" route="route0" type="Car" /><vehicle arrivalLane="1" color="green" depart="129.389022303" departLane="1" id="121" route="route0" type="Car" /><vehicle arrivalLane="1" color="green" depart="129.6825954" departLane="1" id="122" route="route0" type="Car" /><vehicle arrivalLane="0" color="green" depart="130.715893997" departLane="0" id="123" route="route0" type="Car" /><vehicle arrivalLane="1" color="green" depart="130.715893997" departLane="1" id="124" route="route0" type="Car" /><vehicle arrivalLane="1" color="green" depart="131.008864008" departLane="1" id="125" route="route0" type="Car" /><vehicle arrivalLane="0" color="green" depart="132.920175866" departLane="0" id="126" route="route0" type="Car" /><vehicle arrivalLane="1" color="green" depart="132.920175866" departLane="1" id="127" route="route0" type="Car" /><vehicle arrivalLane="1" color="green" depart="133.823583818" departLane="1" id="128" route="route0" type="Car" /><vehicle arrivalLane="0" color="green" depart="137.247033154" departLane="0" id="129" route="route0" type="Car" /><vehicle arrivalLane="0" color="green" depart="137.247033154" departLane="0" id="130" route="route0" type="Car" /><vehicle arrivalLane="1" color="green" depart="137.247033154" departLane="1" id="131" route="route0" type="Car" /><vehicle arrivalLane="0" color="green" depart="138.995096481" departLane="0" id="132" route="route0" type="Car" /><vehicle arrivalLane="0" color="green" depart="138.995096481" departLane="0" id="133" route="route0" type="Car" /><vehicle arrivalLane="1" color="green" depart="138.995096481" departLane="1" id="134" route="route0" type="Car" /><vehicle arrivalLane="0" color="green" depart="142.025424541" departLane="0" id="135" route="route0" type="Car" /><vehicle arrivalLane="1" color="green" depart="142.025424541" departLane="1" id="136" route="route0" type="Car" /><vehicle arrivalLane="1" color="green" depart="143.509645799" departLane="1" id="137" route="route0" type="Car" /><vehicle arrivalLane="0" color="green" depart="144.692376265" departLane="0" id="138" route="route0" type="Car" /><vehicle arrivalLane="1" color="green" depart="144.692376265" departLane="1" id="139" route="route0" type="Car" /><vehicle arrivalLane="0" color="green" depart="146.86008478" departLane="0" id="140" route="route0" type="Car" /><vehicle arrivalLane="1" color="green" depart="146.86008478" departLane="1" id="141" route="route0" type="Car" /><vehicle arrivalLane="0" color="green" depart="149.628598099" departLane="0" id="142" route="route0" type="Car" /><vehicle arrivalLane="0" color="green" depart="149.628598099" departLane="0" id="143" route="route0" type="Car" /><vehicle arrivalLane="1" color="green" depart="149.628598099" departLane="1" id="144" route="route0" type="Car" /><vehicle arrivalLane="0" color="green" depart="152.261645197" departLane="0" id="145" route="route0" type="Car" /><vehicle arrivalLane="0" color="green" depart="152.261645197" departLane="0" id="146" route="route0" type="Car" /><vehicle arrivalLane="0" color="green" depart="152.261645197" departLane="0" id="147" route="route0" type="Car" /><vehicle arrivalLane="1" color="green" depart="152.261645197" departLane="1" id="148" route="route0" type="Car" /><vehicle arrivalLane="1" color="green" depart="153.449727507" departLane="1" id="149" route="route0" type="Car" /><vehicle arrivalLane="1" color="green" depart="154.586437405" departLane="1" id="150" route="route0" type="Car" /><vehicle arrivalLane="0" color="green" depart="155.129695197" departLane="0" id="151" route="route0" type="Car" /><vehicle arrivalLane="0" color="green" depart="155.129695197" departLane="0" id="152" route="route0" type="Car" /><vehicle arrivalLane="1" color="green" depart="155.129695197" departLane="1" id="153" route="route0" type="Car" /><vehicle arrivalLane="1" color="green" depart="157.09496259" departLane="1" id="154" route="route0" type="Car" /><vehicle arrivalLane="1" color="green" depart="157.177848969" departLane="1" id="155" route="route0" type="Car" /><vehicle arrivalLane="1" color="green" depart="158.195497946" departLane="1" id="156" route="route0" type="Car" /><vehicle arrivalLane="0" color="green" depart="162.503452204" departLane="0" id="157" route="route0" type="Car" /><vehicle arrivalLane="0" color="green" depart="162.503452204" departLane="0" id="158" route="route0" type="Car" /><vehicle arrivalLane="0" color="green" depart="162.503452204" departLane="0" id="159" route="route0" type="Car" /><vehicle arrivalLane="0" color="green" depart="162.503452204" departLane="0" id="160" route="route0" type="Car" /><vehicle arrivalLane="0" color="green" depart="162.503452204" departLane="0" id="161" route="route0" type="Car" /><vehicle arrivalLane="1" color="green" depart="162.503452204" departLane="1" id="162" route="route0" type="Car" /><vehicle arrivalLane="1" color="green" depart="162.840077097" departLane="1" id="163" route="route0" type="Car" /><vehicle arrivalLane="0" color="green" depart="166.171827951" departLane="0" id="164" route="route0" type="Car" /><vehicle arrivalLane="1" color="green" depart="166.171827951" departLane="1" id="165" route="route0" type="Car" /><vehicle arrivalLane="0" color="green" depart="170.739452727" departLane="0" id="166" route="route0" type="Car" /><vehicle arrivalLane="1" color="green" depart="170.739452727" departLane="1" id="167" route="route0" type="Car" /><vehicle arrivalLane="1" color="green" depart="170.833874367" departLane="1" id="168" route="route0" type="Car" /><vehicle arrivalLane="0" color="green" depart="172.822638393" departLane="0" id="169" route="route0" type="Car" /><vehicle arrivalLane="0" color="green" depart="172.822638393" departLane="0" id="170" route="route0" type="Car" /><vehicle arrivalLane="0" color="green" depart="172.822638393" departLane="0" id="171" route="route0" type="Car" /><vehicle arrivalLane="1" color="green" depart="172.822638393" departLane="1" id="172" route="route0" type="Car" /><vehicle arrivalLane="0" color="green" depart="176.007782626" departLane="0" id="173" route="route0" type="Car" /><vehicle arrivalLane="0" color="green" depart="176.007782626" departLane="0" id="174" route="route0" type="Car" /><vehicle arrivalLane="1" color="green" depart="176.007782626" departLane="1" id="175" route="route0" type="Car" /><vehicle arrivalLane="0" color="green" depart="179.745938291" departLane="0" id="176" route="route0" type="Car" /><vehicle arrivalLane="1" color="green" depart="179.745938291" departLane="1" id="177" route="route0" type="Car" /><vehicle arrivalLane="1" color="green" depart="180.098812797" departLane="1" id="178" route="route0" type="Car" /><vehicle arrivalLane="0" color="green" depart="182.462542224" departLane="0" id="179" route="route0" type="Car" /><vehicle arrivalLane="0" color="green" depart="182.462542224" departLane="0" id="180" route="route0" type="Car" /><vehicle arrivalLane="0" color="green" depart="182.462542224" departLane="0" id="181" route="route0" type="Car" /><vehicle arrivalLane="1" color="green" depart="182.462542224" departLane="1" id="182" route="route0" type="Car" /><vehicle arrivalLane="0" color="green" depart="186.104580669" departLane="0" id="183" route="route0" type="Car" /><vehicle arrivalLane="0" color="green" depart="186.104580669" departLane="0" id="184" route="route0" type="Car" /><vehicle arrivalLane="1" color="green" depart="186.104580669" departLane="1" id="185" route="route0" type="Car" /><vehicle arrivalLane="0" color="green" depart="188.26102666" departLane="0" id="186" route="route0" type="Car" /><vehicle arrivalLane="0" color="green" depart="188.26102666" departLane="0" id="187" route="route0" type="Car" /><vehicle arrivalLane="1" color="green" depart="188.26102666" departLane="1" id="188" route="route0" type="Car" /><vehicle arrivalLane="1" color="green" depart="188.35573817" departLane="1" id="189" route="route0" type="Car" /><vehicle arrivalLane="1" color="green" depart="189.494951219" departLane="1" id="190" route="route0" type="Car" /><vehicle arrivalLane="1" color="green" depart="189.856601547" departLane="1" id="191" route="route0" type="Car" /><vehicle arrivalLane="0" color="green" depart="194.940513706" departLane="0" id="192" route="route0" type="Car" /><vehicle arrivalLane="0" color="green" depart="194.940513706" departLane="0" id="193" route="route0" type="Car" /><vehicle arrivalLane="0" color="green" depart="194.940513706" departLane="0" id="194" route="route0" type="Car" /><vehicle arrivalLane="1" color="green" depart="194.940513706" departLane="1" id="195" route="route0" type="Car" /><vehicle arrivalLane="0" color="green" depart="198.692969007" departLane="0" id="196" route="route0" type="Car" /><vehicle arrivalLane="1" color="green" depart="198.692969007" departLane="1" id="197" route="route0" type="Car" /><vehicle arrivalLane="1" color="green" depart="200.042439369" departLane="1" id="198" route="route0" type="Car" /><vehicle arrivalLane="1" color="green" depart="200.300884281" departLane="1" id="199" route="route0" type="Car" /></routes>