<routes><vType accel="2.9" decel="7.5" id="Car" length="4.3" maxSpeed="27.78" minGap="-1" sigma="0.0" tau="0" /><vType accel="2.9" decel="7.5" id="CarVIP" length="6.5" maxSpeed="27.78" minGap="-1" sigma="0.0" tau="0" /><route edges="1to2" id="route0" /><vehicle arrivalLane="1" color="green" depart="1.13206092302" departLane="1" id="0" route="route0" type="Car" /><vehicle arrivalLane="1" color="green" depart="1.38918964722" departLane="1" id="1" route="route0" type="Car" /><vehicle arrivalLane="0" color="green" depart="7.75759036448" departLane="0" id="2" route="route0" type="Car" /><vehicle arrivalLane="1" color="green" depart="7.75759036448" departLane="1" id="3" route="route0" type="Car" /><vehicle arrivalLane="0" color="green" depart="11.168434334" departLane="0" id="4" route="route0" type="Car" /><vehicle arrivalLane="0" color="green" depart="11.168434334" departLane="0" id="5" route="route0" type="Car" /><vehicle arrivalLane="0" color="green" depart="11.168434334" departLane="0" id="6" route="route0" type="Car" /><vehicle arrivalLane="0" color="green" depart="11.168434334" departLane="0" id="7" route="route0" type="Car" /><vehicle arrivalLane="1" color="green" depart="11.168434334" departLane="1" id="8" route="route0" type="Car" /><vehicle arrivalLane="0" color="green" depart="12.4819718875" departLane="0" id="9" route="route0" type="Car" /><vehicle arrivalLane="1" color="green" depart="12.4819718875" departLane="1" id="10" route="route0" type="Car" /><vehicle arrivalLane="0" color="green" depart="15.5522482325" departLane="0" id="11" route="route0" type="Car" /><vehicle arrivalLane="0" color="green" depart="15.5522482325" departLane="0" id="12" route="route0" type="Car" /><vehicle arrivalLane="0" color="green" depart="15.5522482325" departLane="0" id="13" route="route0" type="Car" /><vehicle arrivalLane="1" color="green" depart="15.5522482325" departLane="1" id="14" route="route0" type="Car" /><vehicle arrivalLane="1" color="green" depart="16.1108332243" departLane="1" id="15" route="route0" type="Car" /><vehicle arrivalLane="0" color="green" depart="22.4095945714" departLane="0" id="16" route="route0" type="Car" /><vehicle arrivalLane="0" color="green" depart="22.4095945714" departLane="0" id="17" route="route0" type="Car" /><vehicle arrivalLane="0" color="green" depart="22.4095945714" departLane="0" id="18" route="route0" type="Car" /><vehicle arrivalLane="0" color="green" depart="22.4095945714" departLane="0" id="19" route="route0" type="Car" /><vehicle arrivalLane="1" color="green" depart="22.4095945714" departLane="1" id="20" route="route0" type="Car" /><vehicle arrivalLane="1" color="green" depart="22.8179101183" departLane="1" id="21" route="route0" type="Car" /><vehicle arrivalLane="1" color="green" depart="23.4280032234" departLane="1" id="22" route="route0" type="Car" /><vehicle arrivalLane="1" color="green" depart="23.556357902" departLane="1" id="23" route="route0" type="Car" /><vehicle arrivalLane="0" color="green" depart="24.4376243061" departLane="0" id="24" route="route0" type="Car" /><vehicle arrivalLane="1" color="green" depart="24.4376243061" departLane="1" id="25" route="route0" type="Car" /><vehicle arrivalLane="0" color="green" depart="27.4250559524" departLane="0" id="26" route="route0" type="Car" /><vehicle arrivalLane="0" color="green" depart="27.4250559524" departLane="0" id="27" route="route0" type="Car" /><vehicle arrivalLane="1" color="green" depart="27.4250559524" departLane="1" id="28" route="route0" type="Car" /><vehicle arrivalLane="0" color="green" depart="28.2612176463" departLane="0" id="29" route="route0" type="Car" /><vehicle arrivalLane="1" color="green" depart="28.2612176463" departLane="1" id="30" route="route0" type="Car" /><vehicle arrivalLane="1" color="green" depart="28.2634612488" departLane="1" id="31" route="route0" type="Car" /><vehicle arrivalLane="0" color="green" depart="29.8559288423" departLane="0" id="32" route="route0" type="Car" /><vehicle arrivalLane="0" color="green" depart="29.8559288423" departLane="0" id="33" route="route0" type="Car" /><vehicle arrivalLane="0" color="green" depart="29.8559288423" departLane="0" id="34" route="route0" type="Car" /><vehicle arrivalLane="1" color="green" depart="29.8559288423" departLane="1" id="35" route="route0" type="Car" /><vehicle arrivalLane="0" color="green" depart="30.8237419523" departLane="0" id="36" route="route0" type="Car" /><vehicle arrivalLane="0" color="green" depart="30.8237419523" departLane="0" id="37" route="route0" type="Car" /><vehicle arrivalLane="0" color="green" depart="30.8237419523" departLane="0" id="38" route="route0" type="Car" /><vehicle arrivalLane="1" color="green" depart="30.8237419523" departLane="1" id="39" route="route0" type="Car" /><vehicle arrivalLane="1" color="green" depart="31.5524814891" departLane="1" id="40" route="route0" type="Car" /><vehicle arrivalLane="0" color="green" depart="34.8282243309" departLane="0" id="41" route="route0" type="Car" /><vehicle arrivalLane="0" color="green" depart="34.8282243309" departLane="0" id="42" route="route0" type="Car" /><vehicle arrivalLane="0" color="green" depart="34.8282243309" departLane="0" id="43" route="route0" type="Car" /><vehicle arrivalLane="0" color="green" depart="34.8282243309" departLane="0" id="44" route="route0" type="Car" /><vehicle arrivalLane="1" color="green" depart="34.8282243309" departLane="1" id="45" route="route0" type="Car" /><vehicle arrivalLane="0" color="green" depart="35.6882824669" departLane="0" id="46" route="route0" type="Car" /><vehicle arrivalLane="1" color="green" depart="35.6882824669" departLane="1" id="47" route="route0" type="Car" /><vehicle arrivalLane="0" color="green" depart="37.7536790976" departLane="0" id="48" route="route0" type="Car" /><vehicle arrivalLane="0" color="green" depart="37.7536790976" departLane="0" id="49" route="route0" type="Car" /><vehicle arrivalLane="1" color="green" depart="37.7536790976" departLane="1" id="50" route="route0" type="Car" /><vehicle arrivalLane="1" color="green" depart="38.2878171352" departLane="1" id="51" route="route0" type="Car" /><vehicle arrivalLane="0" color="green" depart="42.2700061125" departLane="0" id="52" route="route0" type="Car" /><vehicle arrivalLane="1" color="green" depart="42.2700061125" departLane="1" id="53" route="route0" type="Car" /><vehicle arrivalLane="1" color="green" depart="43.1301907544" departLane="1" id="54" route="route0" type="Car" /><vehicle arrivalLane="1" color="green" depart="43.7148895615" departLane="1" id="55" route="route0" type="Car" /><vehicle arrivalLane="0" color="green" depart="53.7589719017" departLane="0" id="56" route="route0" type="Car" /><vehicle arrivalLane="0" color="green" depart="53.7589719017" departLane="0" id="57" route="route0" type="Car" /><vehicle arrivalLane="0" color="green" depart="53.7589719017" departLane="0" id="58" route="route0" type="Car" /><vehicle arrivalLane="0" color="green" depart="53.7589719017" departLane="0" id="59" route="route0" type="Car" /><vehicle arrivalLane="0" color="green" depart="53.7589719017" departLane="0" id="60" route="route0" type="Car" /><vehicle arrivalLane="0" color="green" depart="53.7589719017" departLane="0" id="61" route="route0" type="Car" /><vehicle arrivalLane="1" color="green" depart="53.7589719017" departLane="1" id="62" route="route0" type="Car" /><vehicle arrivalLane="1" color="green" depart="54.0485899598" departLane="1" id="63" route="route0" type="Car" /><vehicle arrivalLane="1" color="green" depart="54.3637574593" departLane="1" id="64" route="route0" type="Car" /><vehicle arrivalLane="1" color="green" depart="55.4603737789" departLane="1" id="65" route="route0" type="Car" /><vehicle arrivalLane="0" color="green" depart="59.5148406722" departLane="0" id="66" route="route0" type="Car" /><vehicle arrivalLane="0" color="green" depart="59.5148406722" departLane="0" id="67" route="route0" type="Car" /><vehicle arrivalLane="1" color="green" depart="59.5148406722" departLane="1" id="68" route="route0" type="Car" /><vehicle arrivalLane="1" color="green" depart="60.6273666701" departLane="1" id="69" route="route0" type="Car" /><vehicle arrivalLane="1" color="green" depart="61.258405472" departLane="1" id="70" route="route0" type="Car" /><vehicle arrivalLane="0" color="green" depart="62.3069876533" departLane="0" id="71" route="route0" type="Car" /><vehicle arrivalLane="1" color="green" depart="62.3069876533" departLane="1" id="72" route="route0" type="Car" /><vehicle arrivalLane="0" color="green" depart="65.1398382656" departLane="0" id="73" route="route0" type="Car" /><vehicle arrivalLane="0" color="green" depart="65.1398382656" departLane="0" id="74" route="route0" type="Car" /><vehicle arrivalLane="1" color="green" depart="65.1398382656" departLane="1" id="75" route="route0" type="Car" /><vehicle arrivalLane="0" color="green" depart="65.4654337497" departLane="0" id="76" route="route0" type="Car" /><vehicle arrivalLane="1" color="green" depart="65.4654337497" departLane="1" id="77" route="route0" type="Car" /><vehicle arrivalLane="1" color="green" depart="66.5702639531" departLane="1" id="78" route="route0" type="Car" /><vehicle arrivalLane="1" color="green" depart="67.2564623589" departLane="1" id="79" route="route0" type="Car" /><vehicle arrivalLane="0" color="green" depart="75.4715674623" departLane="0" id="80" route="route0" type="Car" /><vehicle arrivalLane="0" color="green" depart="75.4715674623" departLane="0" id="81" route="route0" type="Car" /><vehicle arrivalLane="0" color="green" depart="75.4715674623" departLane="0" id="82" route="route0" type="Car" /><vehicle arrivalLane="0" color="green" depart="75.4715674623" departLane="0" id="83" route="route0" type="Car" /><vehicle arrivalLane="0" color="green" depart="75.4715674623" departLane="0" id="84" route="route0" type="Car" /><vehicle arrivalLane="1" color="green" depart="75.4715674623" departLane="1" id="85" route="route0" type="Car" /><vehicle arrivalLane="1" color="green" depart="75.5521236546" departLane="1" id="86" route="route0" type="Car" /><vehicle arrivalLane="0" color="green" depart="77.0805241505" departLane="0" id="87" route="route0" type="Car" /><vehicle arrivalLane="1" color="green" depart="77.0805241505" departLane="1" id="88" route="route0" type="Car" /><vehicle arrivalLane="0" color="green" depart="81.9979129485" departLane="0" id="89" route="route0" type="Car" /><vehicle arrivalLane="0" color="red" depart="81.9979129485" departLane="0" id="vip" route="route0" type="CarVIP" /><vehicle arrivalLane="0" color="green" depart="81.9979129485" departLane="0" id="91" route="route0" type="Car" /><vehicle arrivalLane="0" color="green" depart="81.9979129485" departLane="0" id="92" route="route0" type="Car" /><vehicle arrivalLane="0" color="green" depart="81.9979129485" departLane="0" id="93" route="route0" type="Car" /><vehicle arrivalLane="1" color="green" depart="81.9979129485" departLane="1" id="94" route="route0" type="Car" /><vehicle arrivalLane="0" color="green" depart="88.8481051127" departLane="0" id="95" route="route0" type="Car" /><vehicle arrivalLane="1" color="green" depart="88.8481051127" departLane="1" id="96" route="route0" type="Car" /><vehicle arrivalLane="1" color="green" depart="89.4532981024" departLane="1" id="97" route="route0" type="Car" /><vehicle arrivalLane="1" color="green" depart="89.8768018554" departLane="1" id="98" route="route0" type="Car" /><vehicle arrivalLane="1" color="green" depart="90.2817090896" departLane="1" id="99" route="route0" type="Car" /><vehicle arrivalLane="1" color="green" depart="92.4986086048" departLane="1" id="100" route="route0" type="Car" /><vehicle arrivalLane="1" color="green" depart="94.1503446836" departLane="1" id="101" route="route0" type="Car" /><vehicle arrivalLane="1" color="green" depart="94.8308293444" departLane="1" id="102" route="route0" type="Car" /><vehicle arrivalLane="0" color="green" depart="99.601030101" departLane="0" id="103" route="route0" type="Car" /><vehicle arrivalLane="1" color="green" depart="99.601030101" departLane="1" id="104" route="route0" type="Car" /><vehicle arrivalLane="0" color="green" depart="100.778437186" departLane="0" id="105" route="route0" type="Car" /><vehicle arrivalLane="0" color="green" depart="100.778437186" departLane="0" id="106" route="route0" type="Car" /><vehicle arrivalLane="1" color="green" depart="100.778437186" departLane="1" id="107" route="route0" type="Car" /><vehicle arrivalLane="0" color="green" depart="101.323828747" departLane="0" id="108" route="route0" type="Car" /><vehicle arrivalLane="1" color="green" depart="101.323828747" departLane="1" id="109" route="route0" type="Car" /><vehicle arrivalLane="0" color="green" depart="102.491617778" departLane="0" id="110" route="route0" type="Car" /><vehicle arrivalLane="1" color="green" depart="102.491617778" departLane="1" id="111" route="route0" type="Car" /><vehicle arrivalLane="1" color="green" depart="102.644942703" departLane="1" id="112" route="route0" type="Car" /><vehicle arrivalLane="1" color="green" depart="103.150085733" departLane="1" id="113" route="route0" type="Car" /><vehicle arrivalLane="0" color="green" depart="103.729332261" departLane="0" id="114" route="route0" type="Car" /><vehicle arrivalLane="1" color="green" depart="103.729332261" departLane="1" id="115" route="route0" type="Car" /><vehicle arrivalLane="1" color="green" depart="104.611679209" departLane="1" id="116" route="route0" type="Car" /><vehicle arrivalLane="1" color="green" depart="106.674199136" departLane="1" id="117" route="route0" type="Car" /><vehicle arrivalLane="1" color="green" depart="106.991261161" departLane="1" id="118" route="route0" type="Car" /><vehicle arrivalLane="0" color="green" depart="108.002999505" departLane="0" id="119" route="route0" type="Car" /><vehicle arrivalLane="1" color="green" depart="108.002999505" departLane="1" id="120" route="route0" type="Car" /><vehicle arrivalLane="0" color="green" depart="110.194397535" departLane="0" id="121" route="route0" type="Car" /><vehicle arrivalLane="1" color="green" depart="110.194397535" departLane="1" id="122" route="route0" type="Car" /><vehicle arrivalLane="0" color="green" depart="113.266074932" departLane="0" id="123" route="route0" type="Car" /><vehicle arrivalLane="1" color="green" depart="113.266074932" departLane="1" id="124" route="route0" type="Car" /><vehicle arrivalLane="1" color="green" depart="113.951669081" departLane="1" id="125" route="route0" type="Car" /><vehicle arrivalLane="0" color="green" depart="118.897354833" departLane="0" id="126" route="route0" type="Car" /><vehicle arrivalLane="0" color="green" depart="118.897354833" departLane="0" id="127" route="route0" type="Car" /><vehicle arrivalLane="1" color="green" depart="118.897354833" departLane="1" id="128" route="route0" type="Car" /><vehicle arrivalLane="0" color="green" depart="137.392855957" departLane="0" id="129" route="route0" type="Car" /><vehicle arrivalLane="0" color="green" depart="137.392855957" departLane="0" id="130" route="route0" type="Car" /><vehicle arrivalLane="0" color="green" depart="137.392855957" departLane="0" id="131" route="route0" type="Car" /><vehicle arrivalLane="0" color="green" depart="137.392855957" departLane="0" id="132" route="route0" type="Car" /><vehicle arrivalLane="0" color="green" depart="137.392855957" departLane="0" id="133" route="route0" type="Car" /><vehicle arrivalLane="0" color="green" depart="137.392855957" departLane="0" id="134" route="route0" type="Car" /><vehicle arrivalLane="0" color="green" depart="137.392855957" departLane="0" id="135" route="route0" type="Car" /><vehicle arrivalLane="0" color="green" depart="137.392855957" departLane="0" id="136" route="route0" type="Car" /><vehicle arrivalLane="0" color="green" depart="137.392855957" departLane="0" id="137" route="route0" type="Car" /><vehicle arrivalLane="0" color="green" depart="137.392855957" departLane="0" id="138" route="route0" type="Car" /><vehicle arrivalLane="0" color="green" depart="137.392855957" departLane="0" id="139" route="route0" type="Car" /><vehicle arrivalLane="0" color="green" depart="137.392855957" departLane="0" id="140" route="route0" type="Car" /><vehicle arrivalLane="0" color="green" depart="137.392855957" departLane="0" id="141" route="route0" type="Car" /><vehicle arrivalLane="0" color="green" depart="137.392855957" departLane="0" id="142" route="route0" type="Car" /><vehicle arrivalLane="1" color="green" depart="137.392855957" departLane="1" id="143" route="route0" type="Car" /><vehicle arrivalLane="0" color="green" depart="140.435256434" departLane="0" id="144" route="route0" type="Car" /><vehicle arrivalLane="1" color="green" depart="140.435256434" departLane="1" id="145" route="route0" type="Car" /><vehicle arrivalLane="0" color="green" depart="144.409378666" departLane="0" id="146" route="route0" type="Car" /><vehicle arrivalLane="1" color="green" depart="144.409378666" departLane="1" id="147" route="route0" type="Car" /><vehicle arrivalLane="0" color="green" depart="147.523915088" departLane="0" id="148" route="route0" type="Car" /><vehicle arrivalLane="0" color="green" depart="147.523915088" departLane="0" id="149" route="route0" type="Car" /><vehicle arrivalLane="1" color="green" depart="147.523915088" departLane="1" id="150" route="route0" type="Car" /><vehicle arrivalLane="1" color="green" depart="148.592112567" departLane="1" id="151" route="route0" type="Car" /><vehicle arrivalLane="1" color="green" depart="149.039099504" departLane="1" id="152" route="route0" type="Car" /><vehicle arrivalLane="1" color="green" depart="149.87974804" departLane="1" id="153" route="route0" type="Car" /><vehicle arrivalLane="0" color="green" depart="152.20926963" departLane="0" id="154" route="route0" type="Car" /><vehicle arrivalLane="0" color="green" depart="152.20926963" departLane="0" id="155" route="route0" type="Car" /><vehicle arrivalLane="1" color="green" depart="152.20926963" departLane="1" id="156" route="route0" type="Car" /><vehicle arrivalLane="1" color="green" depart="153.998539792" departLane="1" id="157" route="route0" type="Car" /><vehicle arrivalLane="1" color="green" depart="154.909840109" departLane="1" id="158" route="route0" type="Car" /><vehicle arrivalLane="1" color="green" depart="155.065469306" departLane="1" id="159" route="route0" type="Car" /><vehicle arrivalLane="0" color="green" depart="157.017922043" departLane="0" id="160" route="route0" type="Car" /><vehicle arrivalLane="1" color="green" depart="157.017922043" departLane="1" id="161" route="route0" type="Car" /><vehicle arrivalLane="1" color="green" depart="157.018423592" departLane="1" id="162" route="route0" type="Car" /><vehicle arrivalLane="0" color="green" depart="160.396608342" departLane="0" id="163" route="route0" type="Car" /><vehicle arrivalLane="0" color="green" depart="160.396608342" departLane="0" id="164" route="route0" type="Car" /><vehicle arrivalLane="1" color="green" depart="160.396608342" departLane="1" id="165" route="route0" type="Car" /><vehicle arrivalLane="1" color="green" depart="160.638359143" departLane="1" id="166" route="route0" type="Car" /><vehicle arrivalLane="0" color="green" depart="160.920272048" departLane="0" id="167" route="route0" type="Car" /><vehicle arrivalLane="1" color="green" depart="160.920272048" departLane="1" id="168" route="route0" type="Car" /><vehicle arrivalLane="0" color="green" depart="161.168632418" departLane="0" id="169" route="route0" type="Car" /><vehicle arrivalLane="1" color="green" depart="161.168632418" departLane="1" id="170" route="route0" type="Car" /><vehicle arrivalLane="1" color="green" depart="161.636914705" departLane="1" id="171" route="route0" type="Car" /><vehicle arrivalLane="0" color="green" depart="172.885889565" departLane="0" id="172" route="route0" type="Car" /><vehicle arrivalLane="0" color="green" depart="172.885889565" departLane="0" id="173" route="route0" type="Car" /><vehicle arrivalLane="0" color="green" depart="172.885889565" departLane="0" id="174" route="route0" type="Car" /><vehicle arrivalLane="0" color="green" depart="172.885889565" departLane="0" id="175" route="route0" type="Car" /><vehicle arrivalLane="0" color="green" depart="172.885889565" departLane="0" id="176" route="route0" type="Car" /><vehicle arrivalLane="0" color="green" depart="172.885889565" departLane="0" id="177" route="route0" type="Car" /><vehicle arrivalLane="0" color="green" depart="172.885889565" departLane="0" id="178" route="route0" type="Car" /><vehicle arrivalLane="1" color="green" depart="172.885889565" departLane="1" id="179" route="route0" type="Car" /><vehicle arrivalLane="0" color="green" depart="175.424812417" departLane="0" id="180" route="route0" type="Car" /><vehicle arrivalLane="0" color="green" depart="175.424812417" departLane="0" id="181" route="route0" type="Car" /><vehicle arrivalLane="1" color="green" depart="175.424812417" departLane="1" id="182" route="route0" type="Car" /><vehicle arrivalLane="1" color="green" depart="178.691586499" departLane="1" id="183" route="route0" type="Car" /><vehicle arrivalLane="1" color="green" depart="179.097107527" departLane="1" id="184" route="route0" type="Car" /><vehicle arrivalLane="1" color="green" depart="180.042798862" departLane="1" id="185" route="route0" type="Car" /><vehicle arrivalLane="1" color="green" depart="182.931056587" departLane="1" id="186" route="route0" type="Car" /><vehicle arrivalLane="1" color="green" depart="186.18657925" departLane="1" id="187" route="route0" type="Car" /><vehicle arrivalLane="1" color="green" depart="187.127393297" departLane="1" id="188" route="route0" type="Car" /><vehicle arrivalLane="1" color="green" depart="187.15572736" departLane="1" id="189" route="route0" type="Car" /><vehicle arrivalLane="1" color="green" depart="188.429605842" departLane="1" id="190" route="route0" type="Car" /><vehicle arrivalLane="1" color="green" depart="189.390331951" departLane="1" id="191" route="route0" type="Car" /><vehicle arrivalLane="1" color="green" depart="192.108724974" departLane="1" id="192" route="route0" type="Car" /><vehicle arrivalLane="1" color="green" depart="193.709169962" departLane="1" id="193" route="route0" type="Car" /><vehicle arrivalLane="1" color="green" depart="193.844966148" departLane="1" id="194" route="route0" type="Car" /><vehicle arrivalLane="1" color="green" depart="195.988041564" departLane="1" id="195" route="route0" type="Car" /><vehicle arrivalLane="1" color="green" depart="197.864598001" departLane="1" id="196" route="route0" type="Car" /><vehicle arrivalLane="1" color="green" depart="198.035283031" departLane="1" id="197" route="route0" type="Car" /><vehicle arrivalLane="1" color="green" depart="199.342281726" departLane="1" id="198" route="route0" type="Car" /><vehicle arrivalLane="1" color="green" depart="201.223749699" departLane="1" id="199" route="route0" type="Car" /></routes>