<routes><vType accel="2.9" decel="7.5" id="Car" length="4.3" maxSpeed="27.78" minGap="-1" sigma="0.0" tau="0" /><vType accel="2.9" decel="7.5" id="CarVIP" length="6.5" maxSpeed="27.78" minGap="-1" sigma="0.0" tau="0" /><route edges="1to2" id="route0" /><vehicle arrivalLane="0" color="green" depart="8.40042380618" departLane="0" id="0" route="route0" type="Car" /><vehicle arrivalLane="0" color="green" depart="8.40042380618" departLane="0" id="1" route="route0" type="Car" /><vehicle arrivalLane="1" color="green" depart="8.40042380618" departLane="1" id="2" route="route0" type="Car" /><vehicle arrivalLane="0" color="green" depart="16.0881600455" departLane="0" id="3" route="route0" type="Car" /><vehicle arrivalLane="0" color="green" depart="16.0881600455" departLane="0" id="4" route="route0" type="Car" /><vehicle arrivalLane="0" color="green" depart="16.0881600455" departLane="0" id="5" route="route0" type="Car" /><vehicle arrivalLane="0" color="green" depart="16.0881600455" departLane="0" id="6" route="route0" type="Car" /><vehicle arrivalLane="0" color="green" depart="16.0881600455" departLane="0" id="7" route="route0" type="Car" /><vehicle arrivalLane="0" color="green" depart="16.0881600455" departLane="0" id="8" route="route0" type="Car" /><vehicle arrivalLane="0" color="green" depart="16.0881600455" departLane="0" id="9" route="route0" type="Car" /><vehicle arrivalLane="0" color="green" depart="16.0881600455" departLane="0" id="10" route="route0" type="Car" /><vehicle arrivalLane="1" color="green" depart="16.0881600455" departLane="1" id="11" route="route0" type="Car" /><vehicle arrivalLane="0" color="green" depart="21.8289145786" departLane="0" id="12" route="route0" type="Car" /><vehicle arrivalLane="0" color="green" depart="21.8289145786" departLane="0" id="13" route="route0" type="Car" /><vehicle arrivalLane="1" color="green" depart="21.8289145786" departLane="1" id="14" route="route0" type="Car" /><vehicle arrivalLane="1" color="green" depart="22.3931797714" departLane="1" id="15" route="route0" type="Car" /><vehicle arrivalLane="0" color="green" depart="29.9759201777" departLane="0" id="16" route="route0" type="Car" /><vehicle arrivalLane="0" color="green" depart="29.9759201777" departLane="0" id="17" route="route0" type="Car" /><vehicle arrivalLane="1" color="green" depart="29.9759201777" departLane="1" id="18" route="route0" type="Car" /><vehicle arrivalLane="1" color="green" depart="31.1657287999" departLane="1" id="19" route="route0" type="Car" /><vehicle arrivalLane="1" color="green" depart="32.913430383" departLane="1" id="20" route="route0" type="Car" /><vehicle arrivalLane="0" color="green" depart="38.0397604923" departLane="0" id="21" route="route0" type="Car" /><vehicle arrivalLane="1" color="green" depart="38.0397604923" departLane="1" id="22" route="route0" type="Car" /><vehicle arrivalLane="1" color="green" depart="40.0468013551" departLane="1" id="23" route="route0" type="Car" /><vehicle arrivalLane="1" color="green" depart="40.1071480934" departLane="1" id="24" route="route0" type="Car" /><vehicle arrivalLane="0" color="green" depart="43.4378219819" departLane="0" id="25" route="route0" type="Car" /><vehicle arrivalLane="0" color="green" depart="43.4378219819" departLane="0" id="26" route="route0" type="Car" /><vehicle arrivalLane="1" color="green" depart="43.4378219819" departLane="1" id="27" route="route0" type="Car" /><vehicle arrivalLane="0" color="green" depart="50.2330324703" departLane="0" id="28" route="route0" type="Car" /><vehicle arrivalLane="0" color="green" depart="50.2330324703" departLane="0" id="29" route="route0" type="Car" /><vehicle arrivalLane="1" color="green" depart="50.2330324703" departLane="1" id="30" route="route0" type="Car" /><vehicle arrivalLane="1" color="green" depart="51.772050362" departLane="1" id="31" route="route0" type="Car" /><vehicle arrivalLane="0" color="green" depart="53.2785074086" departLane="0" id="32" route="route0" type="Car" /><vehicle arrivalLane="0" color="green" depart="53.2785074086" departLane="0" id="33" route="route0" type="Car" /><vehicle arrivalLane="1" color="green" depart="53.2785074086" departLane="1" id="34" route="route0" type="Car" /><vehicle arrivalLane="0" color="green" depart="58.2023049055" departLane="0" id="35" route="route0" type="Car" /><vehicle arrivalLane="1" color="green" depart="58.2023049055" departLane="1" id="36" route="route0" type="Car" /><vehicle arrivalLane="1" color="green" depart="59.7497430972" departLane="1" id="37" route="route0" type="Car" /><vehicle arrivalLane="1" color="green" depart="62.5742141906" departLane="1" id="38" route="route0" type="Car" /><vehicle arrivalLane="1" color="green" depart="62.5815366826" departLane="1" id="39" route="route0" type="Car" /><vehicle arrivalLane="1" color="green" depart="62.672395699" departLane="1" id="40" route="route0" type="Car" /><vehicle arrivalLane="1" color="green" depart="67.0472046204" departLane="1" id="41" route="route0" type="Car" /><vehicle arrivalLane="0" color="green" depart="68.9462035383" departLane="0" id="42" route="route0" type="Car" /><vehicle arrivalLane="1" color="green" depart="68.9462035383" departLane="1" id="43" route="route0" type="Car" /><vehicle arrivalLane="1" color="green" depart="70.3946399956" departLane="1" id="44" route="route0" type="Car" /><vehicle arrivalLane="0" color="green" depart="71.5048710753" departLane="0" id="45" route="route0" type="Car" /><vehicle arrivalLane="0" color="green" depart="71.5048710753" departLane="0" id="46" route="route0" type="Car" /><vehicle arrivalLane="1" color="green" depart="71.5048710753" departLane="1" id="47" route="route0" type="Car" /><vehicle arrivalLane="1" color="green" depart="72.0423168674" departLane="1" id="48" route="route0" type="Car" /><vehicle arrivalLane="1" color="green" depart="72.2829856594" departLane="1" id="49" route="route0" type="Car" /><vehicle arrivalLane="0" color="green" depart="73.5116610901" departLane="0" id="50" route="route0" type="Car" /><vehicle arrivalLane="1" color="green" depart="73.5116610901" departLane="1" id="51" route="route0" type="Car" /><vehicle arrivalLane="0" color="green" depart="82.991630109" departLane="0" id="52" route="route0" type="Car" /><vehicle arrivalLane="1" color="green" depart="82.991630109" departLane="1" id="53" route="route0" type="Car" /><vehicle arrivalLane="0" color="green" depart="83.7916176961" departLane="0" id="54" route="route0" type="Car" /><vehicle arrivalLane="1" color="green" depart="83.7916176961" departLane="1" id="55" route="route0" type="Car" /><vehicle arrivalLane="0" color="green" depart="85.7869753668" departLane="0" id="56" route="route0" type="Car" /><vehicle arrivalLane="1" color="green" depart="85.7869753668" departLane="1" id="57" route="route0" type="Car" /><vehicle arrivalLane="0" color="green" depart="88.1614710266" departLane="0" id="58" route="route0" type="Car" /><vehicle arrivalLane="0" color="green" depart="88.1614710266" departLane="0" id="59" route="route0" type="Car" /><vehicle arrivalLane="1" color="green" depart="88.1614710266" departLane="1" id="60" route="route0" type="Car" /><vehicle arrivalLane="0" color="green" depart="89.0848522157" departLane="0" id="61" route="route0" type="Car" /><vehicle arrivalLane="1" color="green" depart="89.0848522157" departLane="1" id="62" route="route0" type="Car" /><vehicle arrivalLane="1" color="green" depart="91.763062609" departLane="1" id="63" route="route0" type="Car" /><vehicle arrivalLane="1" color="green" depart="91.8631564119" departLane="1" id="64" route="route0" type="Car" /><vehicle arrivalLane="0" color="green" depart="93.4890260178" departLane="0" id="65" route="route0" type="Car" /><vehicle arrivalLane="0" color="green" depart="93.4890260178" departLane="0" id="66" route="route0" type="Car" /><vehicle arrivalLane="1" color="green" depart="93.4890260178" departLane="1" id="67" route="route0" type="Car" /><vehicle arrivalLane="1" color="green" depart="93.8721399299" departLane="1" id="68" route="route0" type="Car" /><vehicle arrivalLane="1" color="green" depart="94.9634676985" departLane="1" id="69" route="route0" type="Car" /><vehicle arrivalLane="1" color="green" depart="95.1375001551" departLane="1" id="70" route="route0" type="Car" /><vehicle arrivalLane="0" color="green" depart="95.3947450719" departLane="0" id="71" route="route0" type="Car" /><vehicle arrivalLane="1" color="green" depart="95.3947450719" departLane="1" id="72" route="route0" type="Car" /><vehicle arrivalLane="1" color="green" depart="95.5328940509" departLane="1" id="73" route="route0" type="Car" /><vehicle arrivalLane="0" color="green" depart="101.872967805" departLane="0" id="74" route="route0" type="Car" /><vehicle arrivalLane="0" color="green" depart="101.872967805" departLane="0" id="75" route="route0" type="Car" /><vehicle arrivalLane="0" color="green" depart="101.872967805" departLane="0" id="76" route="route0" type="Car" /><vehicle arrivalLane="0" color="green" depart="101.872967805" departLane="0" id="77" route="route0" type="Car" /><vehicle arrivalLane="1" color="green" depart="101.872967805" departLane="1" id="78" route="route0" type="Car" /><vehicle arrivalLane="1" color="green" depart="102.504918136" departLane="1" id="79" route="route0" type="Car" /><vehicle arrivalLane="0" color="green" depart="106.933100211" departLane="0" id="80" route="route0" type="Car" /><vehicle arrivalLane="0" color="green" depart="106.933100211" departLane="0" id="81" route="route0" type="Car" /><vehicle arrivalLane="0" color="green" depart="106.933100211" departLane="0" id="82" route="route0" type="Car" /><vehicle arrivalLane="0" color="green" depart="106.933100211" departLane="0" id="83" route="route0" type="Car" /><vehicle arrivalLane="1" color="green" depart="106.933100211" departLane="1" id="84" route="route0" type="Car" /><vehicle arrivalLane="0" color="green" depart="108.979501249" departLane="0" id="85" route="route0" type="Car" /><vehicle arrivalLane="1" color="green" depart="108.979501249" departLane="1" id="86" route="route0" type="Car" /><vehicle arrivalLane="0" color="green" depart="114.328541504" departLane="0" id="87" route="route0" type="Car" /><vehicle arrivalLane="0" color="green" depart="114.328541504" departLane="0" id="88" route="route0" type="Car" /><vehicle arrivalLane="0" color="green" depart="114.328541504" departLane="0" id="89" route="route0" type="Car" /><vehicle arrivalLane="0" color="green" depart="114.328541504" departLane="0" id="90" route="route0" type="Car" /><vehicle arrivalLane="0" color="green" depart="114.328541504" departLane="0" id="91" route="route0" type="Car" /><vehicle arrivalLane="1" color="green" depart="114.328541504" departLane="1" id="92" route="route0" type="Car" /><vehicle arrivalLane="1" color="green" depart="116.322642832" departLane="1" id="93" route="route0" type="Car" /><vehicle arrivalLane="1" color="green" depart="116.57942359" departLane="1" id="94" route="route0" type="Car" /><vehicle arrivalLane="1" color="green" depart="118.916802807" departLane="1" id="95" route="route0" type="Car" /><vehicle arrivalLane="0" color="green" depart="122.567693729" departLane="0" id="96" route="route0" type="Car" /><vehicle arrivalLane="0" color="red" depart="122.567693729" departLane="0" id="vip" route="route0" type="CarVIP" /><vehicle arrivalLane="0" color="green" depart="122.567693729" departLane="0" id="98" route="route0" type="Car" /><vehicle arrivalLane="0" color="green" depart="122.567693729" departLane="0" id="99" route="route0" type="Car" /><vehicle arrivalLane="1" color="green" depart="122.567693729" departLane="1" id="100" route="route0" type="Car" /><vehicle arrivalLane="0" color="green" depart="124.655373264" departLane="0" id="101" route="route0" type="Car" /><vehicle arrivalLane="1" color="green" depart="124.655373264" departLane="1" id="102" route="route0" type="Car" /><vehicle arrivalLane="1" color="green" depart="125.218250032" departLane="1" id="103" route="route0" type="Car" /><vehicle arrivalLane="0" color="green" depart="126.921750915" departLane="0" id="104" route="route0" type="Car" /><vehicle arrivalLane="0" color="green" depart="126.921750915" departLane="0" id="105" route="route0" type="Car" /><vehicle arrivalLane="0" color="green" depart="126.921750915" departLane="0" id="106" route="route0" type="Car" /><vehicle arrivalLane="1" color="green" depart="126.921750915" departLane="1" id="107" route="route0" type="Car" /><vehicle arrivalLane="0" color="green" depart="136.859999546" departLane="0" id="108" route="route0" type="Car" /><vehicle arrivalLane="0" color="green" depart="136.859999546" departLane="0" id="109" route="route0" type="Car" /><vehicle arrivalLane="0" color="green" depart="136.859999546" departLane="0" id="110" route="route0" type="Car" /><vehicle arrivalLane="0" color="green" depart="136.859999546" departLane="0" id="111" route="route0" type="Car" /><vehicle arrivalLane="1" color="green" depart="136.859999546" departLane="1" id="112" route="route0" type="Car" /><vehicle arrivalLane="1" color="green" depart="142.656910867" departLane="1" id="113" route="route0" type="Car" /><vehicle arrivalLane="0" color="green" depart="146.066578395" departLane="0" id="114" route="route0" type="Car" /><vehicle arrivalLane="0" color="green" depart="146.066578395" departLane="0" id="115" route="route0" type="Car" /><vehicle arrivalLane="1" color="green" depart="146.066578395" departLane="1" id="116" route="route0" type="Car" /><vehicle arrivalLane="1" color="green" depart="146.827915763" departLane="1" id="117" route="route0" type="Car" /><vehicle arrivalLane="0" color="green" depart="149.113038761" departLane="0" id="118" route="route0" type="Car" /><vehicle arrivalLane="1" color="green" depart="149.113038761" departLane="1" id="119" route="route0" type="Car" /><vehicle arrivalLane="0" color="green" depart="150.2636519" departLane="0" id="120" route="route0" type="Car" /><vehicle arrivalLane="1" color="green" depart="150.2636519" departLane="1" id="121" route="route0" type="Car" /><vehicle arrivalLane="1" color="green" depart="152.439867418" departLane="1" id="122" route="route0" type="Car" /><vehicle arrivalLane="1" color="green" depart="152.698769788" departLane="1" id="123" route="route0" type="Car" /><vehicle arrivalLane="1" color="green" depart="153.545135184" departLane="1" id="124" route="route0" type="Car" /><vehicle arrivalLane="1" color="green" depart="154.343916355" departLane="1" id="125" route="route0" type="Car" /><vehicle arrivalLane="0" color="green" depart="156.047446335" departLane="0" id="126" route="route0" type="Car" /><vehicle arrivalLane="1" color="green" depart="156.047446335" departLane="1" id="127" route="route0" type="Car" /><vehicle arrivalLane="0" color="green" depart="164.316515901" departLane="0" id="128" route="route0" type="Car" /><vehicle arrivalLane="0" color="green" depart="164.316515901" departLane="0" id="129" route="route0" type="Car" /><vehicle arrivalLane="0" color="green" depart="164.316515901" departLane="0" id="130" route="route0" type="Car" /><vehicle arrivalLane="0" color="green" depart="164.316515901" departLane="0" id="131" route="route0" type="Car" /><vehicle arrivalLane="0" color="green" depart="164.316515901" departLane="0" id="132" route="route0" type="Car" /><vehicle arrivalLane="1" color="green" depart="164.316515901" departLane="1" id="133" route="route0" type="Car" /><vehicle arrivalLane="0" color="green" depart="168.338854173" departLane="0" id="134" route="route0" type="Car" /><vehicle arrivalLane="0" color="green" depart="168.338854173" departLane="0" id="135" route="route0" type="Car" /><vehicle arrivalLane="0" color="green" depart="168.338854173" departLane="0" id="136" route="route0" type="Car" /><vehicle arrivalLane="1" color="green" depart="168.338854173" departLane="1" id="137" route="route0" type="Car" /><vehicle arrivalLane="1" color="green" depart="169.88788621" departLane="1" id="138" route="route0" type="Car" /><vehicle arrivalLane="0" color="green" depart="173.314305776" departLane="0" id="139" route="route0" type="Car" /><vehicle arrivalLane="1" color="green" depart="173.314305776" departLane="1" id="140" route="route0" type="Car" /><vehicle arrivalLane="1" color="green" depart="173.685395015" departLane="1" id="141" route="route0" type="Car" /><vehicle arrivalLane="0" color="green" depart="175.091445901" departLane="0" id="142" route="route0" type="Car" /><vehicle arrivalLane="1" color="green" depart="175.091445901" departLane="1" id="143" route="route0" type="Car" /><vehicle arrivalLane="1" color="green" depart="176.077902401" departLane="1" id="144" route="route0" type="Car" /><vehicle arrivalLane="1" color="green" depart="176.349866025" departLane="1" id="145" route="route0" type="Car" /><vehicle arrivalLane="1" color="green" depart="176.352252538" departLane="1" id="146" route="route0" type="Car" /><vehicle arrivalLane="1" color="green" depart="176.970335978" departLane="1" id="147" route="route0" type="Car" /><vehicle arrivalLane="1" color="green" depart="177.357146679" departLane="1" id="148" route="route0" type="Car" /><vehicle arrivalLane="0" color="green" depart="180.183058805" departLane="0" id="149" route="route0" type="Car" /><vehicle arrivalLane="0" color="green" depart="180.183058805" departLane="0" id="150" route="route0" type="Car" /><vehicle arrivalLane="1" color="green" depart="180.183058805" departLane="1" id="151" route="route0" type="Car" /><vehicle arrivalLane="1" color="green" depart="181.649619304" departLane="1" id="152" route="route0" type="Car" /><vehicle arrivalLane="1" color="green" depart="182.184501595" departLane="1" id="153" route="route0" type="Car" /><vehicle arrivalLane="1" color="green" depart="184.582248189" departLane="1" id="154" route="route0" type="Car" /><vehicle arrivalLane="0" color="green" depart="186.113103046" departLane="0" id="155" route="route0" type="Car" /><vehicle arrivalLane="0" color="green" depart="186.113103046" departLane="0" id="156" route="route0" type="Car" /><vehicle arrivalLane="1" color="green" depart="186.113103046" departLane="1" id="157" route="route0" type="Car" /><vehicle arrivalLane="1" color="green" depart="186.462610228" departLane="1" id="158" route="route0" type="Car" /><vehicle arrivalLane="1" color="green" depart="188.058385669" departLane="1" id="159" route="route0" type="Car" /><vehicle arrivalLane="0" color="green" depart="188.660440081" departLane="0" id="160" route="route0" type="Car" /><vehicle arrivalLane="1" color="green" depart="188.660440081" departLane="1" id="161" route="route0" type="Car" /><vehicle arrivalLane="0" color="green" depart="189.692202307" departLane="0" id="162" route="route0" type="Car" /><vehicle arrivalLane="1" color="green" depart="189.692202307" departLane="1" id="163" route="route0" type="Car" /><vehicle arrivalLane="1" color="green" depart="190.426032624" departLane="1" id="164" route="route0" type="Car" /><vehicle arrivalLane="0" color="green" depart="192.080327645" departLane="0" id="165" route="route0" type="Car" /><vehicle arrivalLane="1" color="green" depart="192.080327645" departLane="1" id="166" route="route0" type="Car" /><vehicle arrivalLane="0" color="green" depart="194.354691265" departLane="0" id="167" route="route0" type="Car" /><vehicle arrivalLane="0" color="green" depart="194.354691265" departLane="0" id="168" route="route0" type="Car" /><vehicle arrivalLane="1" color="green" depart="194.354691265" departLane="1" id="169" route="route0" type="Car" /><vehicle arrivalLane="1" color="green" depart="197.202308681" departLane="1" id="170" route="route0" type="Car" /><vehicle arrivalLane="0" color="green" depart="198.750192997" departLane="0" id="171" route="route0" type="Car" /><vehicle arrivalLane="0" color="green" depart="198.750192997" departLane="0" id="172" route="route0" type="Car" /><vehicle arrivalLane="0" color="green" depart="198.750192997" departLane="0" id="173" route="route0" type="Car" /><vehicle arrivalLane="1" color="green" depart="198.750192997" departLane="1" id="174" route="route0" type="Car" /><vehicle arrivalLane="1" color="green" depart="198.992355762" departLane="1" id="175" route="route0" type="Car" /><vehicle arrivalLane="1" color="green" depart="199.052561554" departLane="1" id="176" route="route0" type="Car" /><vehicle arrivalLane="0" color="green" depart="199.884195296" departLane="0" id="177" route="route0" type="Car" /><vehicle arrivalLane="1" color="green" depart="199.884195296" departLane="1" id="178" route="route0" type="Car" /><vehicle arrivalLane="0" color="green" depart="205.740804294" departLane="0" id="179" route="route0" type="Car" /><vehicle arrivalLane="0" color="green" depart="205.740804294" departLane="0" id="180" route="route0" type="Car" /><vehicle arrivalLane="0" color="green" depart="205.740804294" departLane="0" id="181" route="route0" type="Car" /><vehicle arrivalLane="1" color="green" depart="205.740804294" departLane="1" id="182" route="route0" type="Car" /><vehicle arrivalLane="1" color="green" depart="206.721544133" departLane="1" id="183" route="route0" type="Car" /><vehicle arrivalLane="0" color="green" depart="207.210838864" departLane="0" id="184" route="route0" type="Car" /><vehicle arrivalLane="1" color="green" depart="207.210838864" departLane="1" id="185" route="route0" type="Car" /><vehicle arrivalLane="0" color="green" depart="211.433819793" departLane="0" id="186" route="route0" type="Car" /><vehicle arrivalLane="0" color="green" depart="211.433819793" departLane="0" id="187" route="route0" type="Car" /><vehicle arrivalLane="1" color="green" depart="211.433819793" departLane="1" id="188" route="route0" type="Car" /><vehicle arrivalLane="0" color="green" depart="219.064147779" departLane="0" id="189" route="route0" type="Car" /><vehicle arrivalLane="1" color="green" depart="219.064147779" departLane="1" id="190" route="route0" type="Car" /><vehicle arrivalLane="1" color="green" depart="219.153661016" departLane="1" id="191" route="route0" type="Car" /><vehicle arrivalLane="0" color="green" depart="222.111735483" departLane="0" id="192" route="route0" type="Car" /><vehicle arrivalLane="1" color="green" depart="222.111735483" departLane="1" id="193" route="route0" type="Car" /><vehicle arrivalLane="0" color="green" depart="222.643340056" departLane="0" id="194" route="route0" type="Car" /><vehicle arrivalLane="1" color="green" depart="222.643340056" departLane="1" id="195" route="route0" type="Car" /><vehicle arrivalLane="1" color="green" depart="222.692812763" departLane="1" id="196" route="route0" type="Car" /><vehicle arrivalLane="1" color="green" depart="225.477322663" departLane="1" id="197" route="route0" type="Car" /><vehicle arrivalLane="0" color="green" depart="229.589639665" departLane="0" id="198" route="route0" type="Car" /><vehicle arrivalLane="0" color="green" depart="229.589639665" departLane="0" id="199" route="route0" type="Car" /></routes>