<routes><vType accel="2.9" decel="7.5" id="Car" length="4.3" maxSpeed="27.78" minGap="-1" sigma="0.0" tau="0" /><vType accel="2.9" decel="7.5" id="CarVIP" length="6.5" maxSpeed="27.78" minGap="-1" sigma="0.0" tau="0" /><route edges="1to2" id="route0" /><vehicle arrivalLane="0" color="green" depart="1.85672432444" departLane="0" id="0" route="route0" type="Car" /><vehicle arrivalLane="0" color="green" depart="1.85672432444" departLane="0" id="1" route="route0" type="Car" /><vehicle arrivalLane="1" color="green" depart="1.85672432444" departLane="1" id="2" route="route0" type="Car" /><vehicle arrivalLane="1" color="green" depart="2.80950499357" departLane="1" id="3" route="route0" type="Car" /><vehicle arrivalLane="0" color="green" depart="4.00754982" departLane="0" id="4" route="route0" type="Car" /><vehicle arrivalLane="1" color="green" depart="4.00754982" departLane="1" id="5" route="route0" type="Car" /><vehicle arrivalLane="1" color="green" depart="7.2700978224" departLane="1" id="6" route="route0" type="Car" /><vehicle arrivalLane="0" color="green" depart="8.64521307176" departLane="0" id="7" route="route0" type="Car" /><vehicle arrivalLane="1" color="green" depart="8.64521307176" departLane="1" id="8" route="route0" type="Car" /><vehicle arrivalLane="1" color="green" depart="10.3013421865" departLane="1" id="9" route="route0" type="Car" /><vehicle arrivalLane="1" color="green" depart="12.9540320642" departLane="1" id="10" route="route0" type="Car" /><vehicle arrivalLane="1" color="green" depart="13.0886483671" departLane="1" id="11" route="route0" type="Car" /><vehicle arrivalLane="0" color="green" depart="15.3974820152" departLane="0" id="12" route="route0" type="Car" /><vehicle arrivalLane="0" color="green" depart="15.3974820152" departLane="0" id="13" route="route0" type="Car" /><vehicle arrivalLane="1" color="green" depart="15.3974820152" departLane="1" id="14" route="route0" type="Car" /><vehicle arrivalLane="1" color="green" depart="17.7436044223" departLane="1" id="15" route="route0" type="Car" /><vehicle arrivalLane="1" color="green" depart="18.8076422697" departLane="1" id="16" route="route0" type="Car" /><vehicle arrivalLane="1" color="green" depart="19.6716030019" departLane="1" id="17" route="route0" type="Car" /><vehicle arrivalLane="1" color="green" depart="20.1671101288" departLane="1" id="18" route="route0" type="Car" /><vehicle arrivalLane="0" color="green" depart="22.18177482" departLane="0" id="19" route="route0" type="Car" /><vehicle arrivalLane="1" color="green" depart="22.18177482" departLane="1" id="20" route="route0" type="Car" /><vehicle arrivalLane="1" color="green" depart="24.5941589598" departLane="1" id="21" route="route0" type="Car" /><vehicle arrivalLane="0" color="green" depart="27.6972458506" departLane="0" id="22" route="route0" type="Car" /><vehicle arrivalLane="0" color="green" depart="27.6972458506" departLane="0" id="23" route="route0" type="Car" /><vehicle arrivalLane="1" color="green" depart="27.6972458506" departLane="1" id="24" route="route0" type="Car" /><vehicle arrivalLane="0" color="green" depart="30.6962300475" departLane="0" id="25" route="route0" type="Car" /><vehicle arrivalLane="1" color="green" depart="30.6962300475" departLane="1" id="26" route="route0" type="Car" /><vehicle arrivalLane="0" color="green" depart="31.5358255825" departLane="0" id="27" route="route0" type="Car" /><vehicle arrivalLane="1" color="green" depart="31.5358255825" departLane="1" id="28" route="route0" type="Car" /><vehicle arrivalLane="1" color="green" depart="33.5855707949" departLane="1" id="29" route="route0" type="Car" /><vehicle arrivalLane="0" color="green" depart="34.4096491222" departLane="0" id="30" route="route0" type="Car" /><vehicle arrivalLane="1" color="green" depart="34.4096491222" departLane="1" id="31" route="route0" type="Car" /><vehicle arrivalLane="0" color="green" depart="43.9194285258" departLane="0" id="32" route="route0" type="Car" /><vehicle arrivalLane="0" color="green" depart="43.9194285258" departLane="0" id="33" route="route0" type="Car" /><vehicle arrivalLane="0" color="green" depart="43.9194285258" departLane="0" id="34" route="route0" type="Car" /><vehicle arrivalLane="0" color="green" depart="43.9194285258" departLane="0" id="35" route="route0" type="Car" /><vehicle arrivalLane="0" color="green" depart="43.9194285258" departLane="0" id="36" route="route0" type="Car" /><vehicle arrivalLane="0" color="green" depart="43.9194285258" departLane="0" id="37" route="route0" type="Car" /><vehicle arrivalLane="0" color="green" depart="43.9194285258" departLane="0" id="38" route="route0" type="Car" /><vehicle arrivalLane="0" color="green" depart="43.9194285258" departLane="0" id="39" route="route0" type="Car" /><vehicle arrivalLane="0" color="green" depart="43.9194285258" departLane="0" id="40" route="route0" type="Car" /><vehicle arrivalLane="0" color="green" depart="43.9194285258" departLane="0" id="41" route="route0" type="Car" /><vehicle arrivalLane="0" color="green" depart="43.9194285258" departLane="0" id="42" route="route0" type="Car" /><vehicle arrivalLane="0" color="green" depart="43.9194285258" departLane="0" id="43" route="route0" type="Car" /><vehicle arrivalLane="0" color="green" depart="43.9194285258" departLane="0" id="44" route="route0" type="Car" /><vehicle arrivalLane="1" color="green" depart="43.9194285258" departLane="1" id="45" route="route0" type="Car" /><vehicle arrivalLane="1" color="green" depart="46.2394134728" departLane="1" id="46" route="route0" type="Car" /><vehicle arrivalLane="0" color="green" depart="48.1356466616" departLane="0" id="47" route="route0" type="Car" /><vehicle arrivalLane="1" color="green" depart="48.1356466616" departLane="1" id="48" route="route0" type="Car" /><vehicle arrivalLane="1" color="green" depart="48.6376770734" departLane="1" id="49" route="route0" type="Car" /><vehicle arrivalLane="0" color="green" depart="51.2553044308" departLane="0" id="50" route="route0" type="Car" /><vehicle arrivalLane="1" color="green" depart="51.2553044308" departLane="1" id="51" route="route0" type="Car" /><vehicle arrivalLane="1" color="green" depart="53.9783916878" departLane="1" id="52" route="route0" type="Car" /><vehicle arrivalLane="0" color="green" depart="57.0766567752" departLane="0" id="53" route="route0" type="Car" /><vehicle arrivalLane="1" color="green" depart="57.0766567752" departLane="1" id="54" route="route0" type="Car" /><vehicle arrivalLane="1" color="green" depart="57.1934159483" departLane="1" id="55" route="route0" type="Car" /><vehicle arrivalLane="0" color="green" depart="57.7709810606" departLane="0" id="56" route="route0" type="Car" /><vehicle arrivalLane="1" color="green" depart="57.7709810606" departLane="1" id="57" route="route0" type="Car" /><vehicle arrivalLane="0" color="green" depart="58.1859125948" departLane="0" id="58" route="route0" type="Car" /><vehicle arrivalLane="1" color="green" depart="58.1859125948" departLane="1" id="59" route="route0" type="Car" /><vehicle arrivalLane="0" color="green" depart="58.8306853854" departLane="0" id="60" route="route0" type="Car" /><vehicle arrivalLane="1" color="green" depart="58.8306853854" departLane="1" id="61" route="route0" type="Car" /><vehicle arrivalLane="1" color="green" depart="59.4569094023" departLane="1" id="62" route="route0" type="Car" /><vehicle arrivalLane="1" color="green" depart="59.6391887002" departLane="1" id="63" route="route0" type="Car" /><vehicle arrivalLane="1" color="green" depart="62.4514048012" departLane="1" id="64" route="route0" type="Car" /><vehicle arrivalLane="1" color="green" depart="62.9584394535" departLane="1" id="65" route="route0" type="Car" /><vehicle arrivalLane="0" color="green" depart="63.7760743173" departLane="0" id="66" route="route0" type="Car" /><vehicle arrivalLane="1" color="green" depart="63.7760743173" departLane="1" id="67" route="route0" type="Car" /><vehicle arrivalLane="1" color="green" depart="64.0791914887" departLane="1" id="68" route="route0" type="Car" /><vehicle arrivalLane="0" color="green" depart="69.7470551355" departLane="0" id="69" route="route0" type="Car" /><vehicle arrivalLane="0" color="green" depart="69.7470551355" departLane="0" id="70" route="route0" type="Car" /><vehicle arrivalLane="0" color="green" depart="69.7470551355" departLane="0" id="71" route="route0" type="Car" /><vehicle arrivalLane="0" color="green" depart="69.7470551355" departLane="0" id="72" route="route0" type="Car" /><vehicle arrivalLane="1" color="green" depart="69.7470551355" departLane="1" id="73" route="route0" type="Car" /><vehicle arrivalLane="1" color="green" depart="72.3921316181" departLane="1" id="74" route="route0" type="Car" /><vehicle arrivalLane="1" color="green" depart="73.0579601084" departLane="1" id="75" route="route0" type="Car" /><vehicle arrivalLane="0" color="green" depart="74.1119332168" departLane="0" id="76" route="route0" type="Car" /><vehicle arrivalLane="1" color="green" depart="74.1119332168" departLane="1" id="77" route="route0" type="Car" /><vehicle arrivalLane="1" color="green" depart="74.2447476384" departLane="1" id="78" route="route0" type="Car" /><vehicle arrivalLane="0" color="green" depart="76.7273665425" departLane="0" id="79" route="route0" type="Car" /><vehicle arrivalLane="0" color="green" depart="76.7273665425" departLane="0" id="80" route="route0" type="Car" /><vehicle arrivalLane="1" color="green" depart="76.7273665425" departLane="1" id="81" route="route0" type="Car" /><vehicle arrivalLane="0" color="green" depart="78.190200645" departLane="0" id="82" route="route0" type="Car" /><vehicle arrivalLane="1" color="green" depart="78.190200645" departLane="1" id="83" route="route0" type="Car" /><vehicle arrivalLane="1" color="green" depart="78.4026943729" departLane="1" id="84" route="route0" type="Car" /><vehicle arrivalLane="1" color="green" depart="78.7663632437" departLane="1" id="85" route="route0" type="Car" /><vehicle arrivalLane="1" color="green" depart="78.8680356523" departLane="1" id="86" route="route0" type="Car" /><vehicle arrivalLane="1" color="green" depart="79.6531526148" departLane="1" id="87" route="route0" type="Car" /><vehicle arrivalLane="0" color="green" depart="83.6471952685" departLane="0" id="88" route="route0" type="Car" /><vehicle arrivalLane="0" color="green" depart="83.6471952685" departLane="0" id="89" route="route0" type="Car" /><vehicle arrivalLane="1" color="green" depart="83.6471952685" departLane="1" id="90" route="route0" type="Car" /><vehicle arrivalLane="0" color="green" depart="86.8943714576" departLane="0" id="91" route="route0" type="Car" /><vehicle arrivalLane="1" color="green" depart="86.8943714576" departLane="1" id="92" route="route0" type="Car" /><vehicle arrivalLane="0" color="green" depart="89.9611135912" departLane="0" id="93" route="route0" type="Car" /><vehicle arrivalLane="0" color="green" depart="89.9611135912" departLane="0" id="94" route="route0" type="Car" /><vehicle arrivalLane="0" color="green" depart="89.9611135912" departLane="0" id="95" route="route0" type="Car" /><vehicle arrivalLane="0" color="green" depart="89.9611135912" departLane="0" id="96" route="route0" type="Car" /><vehicle arrivalLane="1" color="green" depart="89.9611135912" departLane="1" id="97" route="route0" type="Car" /><vehicle arrivalLane="0" color="green" depart="98.5476039593" departLane="0" id="98" route="route0" type="Car" /><vehicle arrivalLane="0" color="green" depart="98.5476039593" departLane="0" id="99" route="route0" type="Car" /><vehicle arrivalLane="0" color="green" depart="98.5476039593" departLane="0" id="100" route="route0" type="Car" /><vehicle arrivalLane="0" color="red" depart="98.5476039593" departLane="0" id="vip" route="route0" type="CarVIP" /><vehicle arrivalLane="0" color="green" depart="98.5476039593" departLane="0" id="102" route="route0" type="Car" /><vehicle arrivalLane="0" color="green" depart="98.5476039593" departLane="0" id="103" route="route0" type="Car" /><vehicle arrivalLane="0" color="green" depart="98.5476039593" departLane="0" id="104" route="route0" type="Car" /><vehicle arrivalLane="0" color="green" depart="98.5476039593" departLane="0" id="105" route="route0" type="Car" /><vehicle arrivalLane="1" color="green" depart="98.5476039593" departLane="1" id="106" route="route0" type="Car" /><vehicle arrivalLane="1" color="green" depart="99.7439983986" departLane="1" id="107" route="route0" type="Car" /><vehicle arrivalLane="0" color="green" depart="102.537843288" departLane="0" id="108" route="route0" type="Car" /><vehicle arrivalLane="1" color="green" depart="102.537843288" departLane="1" id="109" route="route0" type="Car" /><vehicle arrivalLane="1" color="green" depart="103.11764785" departLane="1" id="110" route="route0" type="Car" /><vehicle arrivalLane="1" color="green" depart="105.085329116" departLane="1" id="111" route="route0" type="Car" /><vehicle arrivalLane="1" color="green" depart="105.609926688" departLane="1" id="112" route="route0" type="Car" /><vehicle arrivalLane="1" color="green" depart="105.970341525" departLane="1" id="113" route="route0" type="Car" /><vehicle arrivalLane="0" color="green" depart="109.603032466" departLane="0" id="114" route="route0" type="Car" /><vehicle arrivalLane="0" color="green" depart="109.603032466" departLane="0" id="115" route="route0" type="Car" /><vehicle arrivalLane="1" color="green" depart="109.603032466" departLane="1" id="116" route="route0" type="Car" /><vehicle arrivalLane="1" color="green" depart="110.055838748" departLane="1" id="117" route="route0" type="Car" /><vehicle arrivalLane="0" color="green" depart="112.198519473" departLane="0" id="118" route="route0" type="Car" /><vehicle arrivalLane="0" color="green" depart="112.198519473" departLane="0" id="119" route="route0" type="Car" /><vehicle arrivalLane="1" color="green" depart="112.198519473" departLane="1" id="120" route="route0" type="Car" /><vehicle arrivalLane="0" color="green" depart="117.975337698" departLane="0" id="121" route="route0" type="Car" /><vehicle arrivalLane="0" color="green" depart="117.975337698" departLane="0" id="122" route="route0" type="Car" /><vehicle arrivalLane="0" color="green" depart="117.975337698" departLane="0" id="123" route="route0" type="Car" /><vehicle arrivalLane="1" color="green" depart="117.975337698" departLane="1" id="124" route="route0" type="Car" /><vehicle arrivalLane="0" color="green" depart="125.180777006" departLane="0" id="125" route="route0" type="Car" /><vehicle arrivalLane="0" color="green" depart="125.180777006" departLane="0" id="126" route="route0" type="Car" /><vehicle arrivalLane="1" color="green" depart="125.180777006" departLane="1" id="127" route="route0" type="Car" /><vehicle arrivalLane="1" color="green" depart="128.373249228" departLane="1" id="128" route="route0" type="Car" /><vehicle arrivalLane="0" color="green" depart="128.505882658" departLane="0" id="129" route="route0" type="Car" /><vehicle arrivalLane="1" color="green" depart="128.505882658" departLane="1" id="130" route="route0" type="Car" /><vehicle arrivalLane="0" color="green" depart="130.064638793" departLane="0" id="131" route="route0" type="Car" /><vehicle arrivalLane="0" color="green" depart="130.064638793" departLane="0" id="132" route="route0" type="Car" /><vehicle arrivalLane="0" color="green" depart="130.064638793" departLane="0" id="133" route="route0" type="Car" /><vehicle arrivalLane="1" color="green" depart="130.064638793" departLane="1" id="134" route="route0" type="Car" /><vehicle arrivalLane="1" color="green" depart="133.454202012" departLane="1" id="135" route="route0" type="Car" /><vehicle arrivalLane="0" color="green" depart="140.59112396" departLane="0" id="136" route="route0" type="Car" /><vehicle arrivalLane="0" color="green" depart="140.59112396" departLane="0" id="137" route="route0" type="Car" /><vehicle arrivalLane="0" color="green" depart="140.59112396" departLane="0" id="138" route="route0" type="Car" /><vehicle arrivalLane="1" color="green" depart="140.59112396" departLane="1" id="139" route="route0" type="Car" /><vehicle arrivalLane="0" color="green" depart="144.493507302" departLane="0" id="140" route="route0" type="Car" /><vehicle arrivalLane="0" color="green" depart="144.493507302" departLane="0" id="141" route="route0" type="Car" /><vehicle arrivalLane="1" color="green" depart="144.493507302" departLane="1" id="142" route="route0" type="Car" /><vehicle arrivalLane="0" color="green" depart="145.234661951" departLane="0" id="143" route="route0" type="Car" /><vehicle arrivalLane="0" color="green" depart="145.234661951" departLane="0" id="144" route="route0" type="Car" /><vehicle arrivalLane="1" color="green" depart="145.234661951" departLane="1" id="145" route="route0" type="Car" /><vehicle arrivalLane="0" color="green" depart="147.259406322" departLane="0" id="146" route="route0" type="Car" /><vehicle arrivalLane="1" color="green" depart="147.259406322" departLane="1" id="147" route="route0" type="Car" /><vehicle arrivalLane="1" color="green" depart="149.04636341" departLane="1" id="148" route="route0" type="Car" /><vehicle arrivalLane="0" color="green" depart="149.427853382" departLane="0" id="149" route="route0" type="Car" /><vehicle arrivalLane="1" color="green" depart="149.427853382" departLane="1" id="150" route="route0" type="Car" /><vehicle arrivalLane="1" color="green" depart="151.477506128" departLane="1" id="151" route="route0" type="Car" /><vehicle arrivalLane="0" color="green" depart="156.560572313" departLane="0" id="152" route="route0" type="Car" /><vehicle arrivalLane="0" color="green" depart="156.560572313" departLane="0" id="153" route="route0" type="Car" /><vehicle arrivalLane="0" color="green" depart="156.560572313" departLane="0" id="154" route="route0" type="Car" /><vehicle arrivalLane="0" color="green" depart="156.560572313" departLane="0" id="155" route="route0" type="Car" /><vehicle arrivalLane="1" color="green" depart="156.560572313" departLane="1" id="156" route="route0" type="Car" /><vehicle arrivalLane="1" color="green" depart="158.736684097" departLane="1" id="157" route="route0" type="Car" /><vehicle arrivalLane="1" color="green" depart="162.9296588" departLane="1" id="158" route="route0" type="Car" /><vehicle arrivalLane="0" color="green" depart="166.221285992" departLane="0" id="159" route="route0" type="Car" /><vehicle arrivalLane="0" color="green" depart="166.221285992" departLane="0" id="160" route="route0" type="Car" /><vehicle arrivalLane="1" color="green" depart="166.221285992" departLane="1" id="161" route="route0" type="Car" /><vehicle arrivalLane="1" color="green" depart="166.515142182" departLane="1" id="162" route="route0" type="Car" /><vehicle arrivalLane="1" color="green" depart="166.765576664" departLane="1" id="163" route="route0" type="Car" /><vehicle arrivalLane="1" color="green" depart="167.227804494" departLane="1" id="164" route="route0" type="Car" /><vehicle arrivalLane="1" color="green" depart="167.265364211" departLane="1" id="165" route="route0" type="Car" /><vehicle arrivalLane="1" color="green" depart="168.757251065" departLane="1" id="166" route="route0" type="Car" /><vehicle arrivalLane="0" color="green" depart="168.848521676" departLane="0" id="167" route="route0" type="Car" /><vehicle arrivalLane="1" color="green" depart="168.848521676" departLane="1" id="168" route="route0" type="Car" /><vehicle arrivalLane="0" color="green" depart="173.194641888" departLane="0" id="169" route="route0" type="Car" /><vehicle arrivalLane="0" color="green" depart="173.194641888" departLane="0" id="170" route="route0" type="Car" /><vehicle arrivalLane="1" color="green" depart="173.194641888" departLane="1" id="171" route="route0" type="Car" /><vehicle arrivalLane="1" color="green" depart="173.602233801" departLane="1" id="172" route="route0" type="Car" /><vehicle arrivalLane="0" color="green" depart="175.053590104" departLane="0" id="173" route="route0" type="Car" /><vehicle arrivalLane="1" color="green" depart="175.053590104" departLane="1" id="174" route="route0" type="Car" /><vehicle arrivalLane="0" color="green" depart="183.609560167" departLane="0" id="175" route="route0" type="Car" /><vehicle arrivalLane="0" color="green" depart="183.609560167" departLane="0" id="176" route="route0" type="Car" /><vehicle arrivalLane="0" color="green" depart="183.609560167" departLane="0" id="177" route="route0" type="Car" /><vehicle arrivalLane="0" color="green" depart="183.609560167" departLane="0" id="178" route="route0" type="Car" /><vehicle arrivalLane="0" color="green" depart="183.609560167" departLane="0" id="179" route="route0" type="Car" /><vehicle arrivalLane="1" color="green" depart="183.609560167" departLane="1" id="180" route="route0" type="Car" /><vehicle arrivalLane="0" color="green" depart="188.406819706" departLane="0" id="181" route="route0" type="Car" /><vehicle arrivalLane="0" color="green" depart="188.406819706" departLane="0" id="182" route="route0" type="Car" /><vehicle arrivalLane="1" color="green" depart="188.406819706" departLane="1" id="183" route="route0" type="Car" /><vehicle arrivalLane="1" color="green" depart="188.424880463" departLane="1" id="184" route="route0" type="Car" /><vehicle arrivalLane="0" color="green" depart="192.231597037" departLane="0" id="185" route="route0" type="Car" /><vehicle arrivalLane="0" color="green" depart="192.231597037" departLane="0" id="186" route="route0" type="Car" /><vehicle arrivalLane="1" color="green" depart="192.231597037" departLane="1" id="187" route="route0" type="Car" /><vehicle arrivalLane="0" color="green" depart="194.831418872" departLane="0" id="188" route="route0" type="Car" /><vehicle arrivalLane="1" color="green" depart="194.831418872" departLane="1" id="189" route="route0" type="Car" /><vehicle arrivalLane="1" color="green" depart="195.724345045" departLane="1" id="190" route="route0" type="Car" /><vehicle arrivalLane="1" color="green" depart="195.822703273" departLane="1" id="191" route="route0" type="Car" /><vehicle arrivalLane="0" color="green" depart="196.30301" departLane="0" id="192" route="route0" type="Car" /><vehicle arrivalLane="0" color="green" depart="196.30301" departLane="0" id="193" route="route0" type="Car" /><vehicle arrivalLane="1" color="green" depart="196.30301" departLane="1" id="194" route="route0" type="Car" /><vehicle arrivalLane="1" color="green" depart="196.865109283" departLane="1" id="195" route="route0" type="Car" /><vehicle arrivalLane="1" color="green" depart="199.258760388" departLane="1" id="196" route="route0" type="Car" /><vehicle arrivalLane="1" color="green" depart="200.047968353" departLane="1" id="197" route="route0" type="Car" /><vehicle arrivalLane="1" color="green" depart="200.441685529" departLane="1" id="198" route="route0" type="Car" /><vehicle arrivalLane="1" color="green" depart="202.477490354" departLane="1" id="199" route="route0" type="Car" /></routes>