<routes><vType accel="2.9" decel="7.5" id="Car" length="4.3" maxSpeed="27.78" minGap="-1" sigma="0.0" tau="0" /><vType accel="2.9" decel="7.5" id="CarVIP" length="6.5" maxSpeed="27.78" minGap="-1" sigma="0.0" tau="0" /><route edges="1to2" id="route0" /><vehicle arrivalLane="1" color="green" depart="1.19535650073" departLane="1" id="0" route="route0" type="Car" /><vehicle arrivalLane="1" color="green" depart="2.31228729144" departLane="1" id="1" route="route0" type="Car" /><vehicle arrivalLane="1" color="green" depart="2.60892540771" departLane="1" id="2" route="route0" type="Car" /><vehicle arrivalLane="0" color="green" depart="4.30645203707" departLane="0" id="3" route="route0" type="Car" /><vehicle arrivalLane="0" color="green" depart="4.30645203707" departLane="0" id="4" route="route0" type="Car" /><vehicle arrivalLane="1" color="green" depart="4.30645203707" departLane="1" id="5" route="route0" type="Car" /><vehicle arrivalLane="1" color="green" depart="4.45918709522" departLane="1" id="6" route="route0" type="Car" /><vehicle arrivalLane="1" color="green" depart="6.00548049401" departLane="1" id="7" route="route0" type="Car" /><vehicle arrivalLane="0" color="green" depart="8.41044354215" departLane="0" id="8" route="route0" type="Car" /><vehicle arrivalLane="1" color="green" depart="8.41044354215" departLane="1" id="9" route="route0" type="Car" /><vehicle arrivalLane="0" color="green" depart="12.4358765502" departLane="0" id="10" route="route0" type="Car" /><vehicle arrivalLane="0" color="green" depart="12.4358765502" departLane="0" id="11" route="route0" type="Car" /><vehicle arrivalLane="1" color="green" depart="12.4358765502" departLane="1" id="12" route="route0" type="Car" /><vehicle arrivalLane="0" color="green" depart="15.9629232936" departLane="0" id="13" route="route0" type="Car" /><vehicle arrivalLane="0" color="green" depart="15.9629232936" departLane="0" id="14" route="route0" type="Car" /><vehicle arrivalLane="0" color="green" depart="15.9629232936" departLane="0" id="15" route="route0" type="Car" /><vehicle arrivalLane="0" color="green" depart="15.9629232936" departLane="0" id="16" route="route0" type="Car" /><vehicle arrivalLane="1" color="green" depart="15.9629232936" departLane="1" id="17" route="route0" type="Car" /><vehicle arrivalLane="1" color="green" depart="18.560980256" departLane="1" id="18" route="route0" type="Car" /><vehicle arrivalLane="0" color="green" depart="21.541989578" departLane="0" id="19" route="route0" type="Car" /><vehicle arrivalLane="0" color="green" depart="21.541989578" departLane="0" id="20" route="route0" type="Car" /><vehicle arrivalLane="0" color="green" depart="21.541989578" departLane="0" id="21" route="route0" type="Car" /><vehicle arrivalLane="0" color="green" depart="21.541989578" departLane="0" id="22" route="route0" type="Car" /><vehicle arrivalLane="1" color="green" depart="21.541989578" departLane="1" id="23" route="route0" type="Car" /><vehicle arrivalLane="0" color="green" depart="24.7401850131" departLane="0" id="24" route="route0" type="Car" /><vehicle arrivalLane="0" color="green" depart="24.7401850131" departLane="0" id="25" route="route0" type="Car" /><vehicle arrivalLane="0" color="green" depart="24.7401850131" departLane="0" id="26" route="route0" type="Car" /><vehicle arrivalLane="1" color="green" depart="24.7401850131" departLane="1" id="27" route="route0" type="Car" /><vehicle arrivalLane="0" color="green" depart="26.0700840388" departLane="0" id="28" route="route0" type="Car" /><vehicle arrivalLane="1" color="green" depart="26.0700840388" departLane="1" id="29" route="route0" type="Car" /><vehicle arrivalLane="1" color="green" depart="27.4729163921" departLane="1" id="30" route="route0" type="Car" /><vehicle arrivalLane="1" color="green" depart="27.7319764317" departLane="1" id="31" route="route0" type="Car" /><vehicle arrivalLane="0" color="green" depart="28.0397540654" departLane="0" id="32" route="route0" type="Car" /><vehicle arrivalLane="1" color="green" depart="28.0397540654" departLane="1" id="33" route="route0" type="Car" /><vehicle arrivalLane="0" color="green" depart="35.3215906188" departLane="0" id="34" route="route0" type="Car" /><vehicle arrivalLane="0" color="green" depart="35.3215906188" departLane="0" id="35" route="route0" type="Car" /><vehicle arrivalLane="0" color="green" depart="35.3215906188" departLane="0" id="36" route="route0" type="Car" /><vehicle arrivalLane="0" color="green" depart="35.3215906188" departLane="0" id="37" route="route0" type="Car" /><vehicle arrivalLane="0" color="green" depart="35.3215906188" departLane="0" id="38" route="route0" type="Car" /><vehicle arrivalLane="1" color="green" depart="35.3215906188" departLane="1" id="39" route="route0" type="Car" /><vehicle arrivalLane="1" color="green" depart="38.4820476866" departLane="1" id="40" route="route0" type="Car" /><vehicle arrivalLane="1" color="green" depart="38.7872918485" departLane="1" id="41" route="route0" type="Car" /><vehicle arrivalLane="1" color="green" depart="40.8786708955" departLane="1" id="42" route="route0" type="Car" /><vehicle arrivalLane="0" color="green" depart="42.9742209131" departLane="0" id="43" route="route0" type="Car" /><vehicle arrivalLane="0" color="green" depart="42.9742209131" departLane="0" id="44" route="route0" type="Car" /><vehicle arrivalLane="1" color="green" depart="42.9742209131" departLane="1" id="45" route="route0" type="Car" /><vehicle arrivalLane="0" color="green" depart="45.8114740461" departLane="0" id="46" route="route0" type="Car" /><vehicle arrivalLane="0" color="green" depart="45.8114740461" departLane="0" id="47" route="route0" type="Car" /><vehicle arrivalLane="0" color="green" depart="45.8114740461" departLane="0" id="48" route="route0" type="Car" /><vehicle arrivalLane="1" color="green" depart="45.8114740461" departLane="1" id="49" route="route0" type="Car" /><vehicle arrivalLane="1" color="green" depart="47.0909064265" departLane="1" id="50" route="route0" type="Car" /><vehicle arrivalLane="0" color="green" depart="47.9808067026" departLane="0" id="51" route="route0" type="Car" /><vehicle arrivalLane="1" color="green" depart="47.9808067026" departLane="1" id="52" route="route0" type="Car" /><vehicle arrivalLane="0" color="green" depart="49.0232551826" departLane="0" id="53" route="route0" type="Car" /><vehicle arrivalLane="0" color="green" depart="49.0232551826" departLane="0" id="54" route="route0" type="Car" /><vehicle arrivalLane="1" color="green" depart="49.0232551826" departLane="1" id="55" route="route0" type="Car" /><vehicle arrivalLane="1" color="green" depart="49.6068735076" departLane="1" id="56" route="route0" type="Car" /><vehicle arrivalLane="0" color="green" depart="50.861408552" departLane="0" id="57" route="route0" type="Car" /><vehicle arrivalLane="1" color="green" depart="50.861408552" departLane="1" id="58" route="route0" type="Car" /><vehicle arrivalLane="0" color="green" depart="52.4718651497" departLane="0" id="59" route="route0" type="Car" /><vehicle arrivalLane="1" color="green" depart="52.4718651497" departLane="1" id="60" route="route0" type="Car" /><vehicle arrivalLane="1" color="green" depart="52.6041081795" departLane="1" id="61" route="route0" type="Car" /><vehicle arrivalLane="1" color="green" depart="53.6834233153" departLane="1" id="62" route="route0" type="Car" /><vehicle arrivalLane="0" color="green" depart="56.526347525" departLane="0" id="63" route="route0" type="Car" /><vehicle arrivalLane="1" color="green" depart="56.526347525" departLane="1" id="64" route="route0" type="Car" /><vehicle arrivalLane="1" color="green" depart="58.532620648" departLane="1" id="65" route="route0" type="Car" /><vehicle arrivalLane="0" color="green" depart="62.4434846224" departLane="0" id="66" route="route0" type="Car" /><vehicle arrivalLane="0" color="green" depart="62.4434846224" departLane="0" id="67" route="route0" type="Car" /><vehicle arrivalLane="0" color="green" depart="62.4434846224" departLane="0" id="68" route="route0" type="Car" /><vehicle arrivalLane="0" color="green" depart="62.4434846224" departLane="0" id="69" route="route0" type="Car" /><vehicle arrivalLane="0" color="green" depart="62.4434846224" departLane="0" id="70" route="route0" type="Car" /><vehicle arrivalLane="0" color="green" depart="62.4434846224" departLane="0" id="71" route="route0" type="Car" /><vehicle arrivalLane="1" color="green" depart="62.4434846224" departLane="1" id="72" route="route0" type="Car" /><vehicle arrivalLane="1" color="green" depart="63.7504780606" departLane="1" id="73" route="route0" type="Car" /><vehicle arrivalLane="0" color="green" depart="66.3393741595" departLane="0" id="74" route="route0" type="Car" /><vehicle arrivalLane="0" color="green" depart="66.3393741595" departLane="0" id="75" route="route0" type="Car" /><vehicle arrivalLane="1" color="green" depart="66.3393741595" departLane="1" id="76" route="route0" type="Car" /><vehicle arrivalLane="1" color="green" depart="66.9542235316" departLane="1" id="77" route="route0" type="Car" /><vehicle arrivalLane="0" color="green" depart="71.8199520648" departLane="0" id="78" route="route0" type="Car" /><vehicle arrivalLane="0" color="green" depart="71.8199520648" departLane="0" id="79" route="route0" type="Car" /><vehicle arrivalLane="0" color="green" depart="71.8199520648" departLane="0" id="80" route="route0" type="Car" /><vehicle arrivalLane="1" color="green" depart="71.8199520648" departLane="1" id="81" route="route0" type="Car" /><vehicle arrivalLane="1" color="green" depart="72.6556841736" departLane="1" id="82" route="route0" type="Car" /><vehicle arrivalLane="0" color="green" depart="73.244626584" departLane="0" id="83" route="route0" type="Car" /><vehicle arrivalLane="1" color="green" depart="73.244626584" departLane="1" id="84" route="route0" type="Car" /><vehicle arrivalLane="0" color="green" depart="75.6070701843" departLane="0" id="85" route="route0" type="Car" /><vehicle arrivalLane="0" color="green" depart="75.6070701843" departLane="0" id="86" route="route0" type="Car" /><vehicle arrivalLane="1" color="green" depart="75.6070701843" departLane="1" id="87" route="route0" type="Car" /><vehicle arrivalLane="1" color="green" depart="76.4462357915" departLane="1" id="88" route="route0" type="Car" /><vehicle arrivalLane="0" color="green" depart="77.7608612432" departLane="0" id="89" route="route0" type="Car" /><vehicle arrivalLane="0" color="green" depart="77.7608612432" departLane="0" id="90" route="route0" type="Car" /><vehicle arrivalLane="1" color="green" depart="77.7608612432" departLane="1" id="91" route="route0" type="Car" /><vehicle arrivalLane="0" color="red" depart="82.0138412532" departLane="0" id="vip" route="route0" type="CarVIP" /><vehicle arrivalLane="1" color="green" depart="82.0138412532" departLane="1" id="93" route="route0" type="Car" /><vehicle arrivalLane="0" color="green" depart="82.1482780202" departLane="0" id="94" route="route0" type="Car" /><vehicle arrivalLane="1" color="green" depart="82.1482780202" departLane="1" id="95" route="route0" type="Car" /><vehicle arrivalLane="1" color="green" depart="84.0206907922" departLane="1" id="96" route="route0" type="Car" /><vehicle arrivalLane="0" color="green" depart="86.3323395949" departLane="0" id="97" route="route0" type="Car" /><vehicle arrivalLane="1" color="green" depart="86.3323395949" departLane="1" id="98" route="route0" type="Car" /><vehicle arrivalLane="1" color="green" depart="87.6731604397" departLane="1" id="99" route="route0" type="Car" /><vehicle arrivalLane="0" color="green" depart="89.2884840534" departLane="0" id="100" route="route0" type="Car" /><vehicle arrivalLane="0" color="green" depart="89.2884840534" departLane="0" id="101" route="route0" type="Car" /><vehicle arrivalLane="0" color="green" depart="89.2884840534" departLane="0" id="102" route="route0" type="Car" /><vehicle arrivalLane="0" color="green" depart="89.2884840534" departLane="0" id="103" route="route0" type="Car" /><vehicle arrivalLane="0" color="green" depart="89.2884840534" departLane="0" id="104" route="route0" type="Car" /><vehicle arrivalLane="1" color="green" depart="89.2884840534" departLane="1" id="105" route="route0" type="Car" /><vehicle arrivalLane="0" color="green" depart="92.3140982095" departLane="0" id="106" route="route0" type="Car" /><vehicle arrivalLane="0" color="green" depart="92.3140982095" departLane="0" id="107" route="route0" type="Car" /><vehicle arrivalLane="1" color="green" depart="92.3140982095" departLane="1" id="108" route="route0" type="Car" /><vehicle arrivalLane="0" color="green" depart="92.6347807708" departLane="0" id="109" route="route0" type="Car" /><vehicle arrivalLane="1" color="green" depart="92.6347807708" departLane="1" id="110" route="route0" type="Car" /><vehicle arrivalLane="1" color="green" depart="93.0293324983" departLane="1" id="111" route="route0" type="Car" /><vehicle arrivalLane="0" color="green" depart="96.4560424186" departLane="0" id="112" route="route0" type="Car" /><vehicle arrivalLane="0" color="green" depart="96.4560424186" departLane="0" id="113" route="route0" type="Car" /><vehicle arrivalLane="0" color="green" depart="96.4560424186" departLane="0" id="114" route="route0" type="Car" /><vehicle arrivalLane="0" color="green" depart="96.4560424186" departLane="0" id="115" route="route0" type="Car" /><vehicle arrivalLane="1" color="green" depart="96.4560424186" departLane="1" id="116" route="route0" type="Car" /><vehicle arrivalLane="0" color="green" depart="101.960531876" departLane="0" id="117" route="route0" type="Car" /><vehicle arrivalLane="0" color="green" depart="101.960531876" departLane="0" id="118" route="route0" type="Car" /><vehicle arrivalLane="0" color="green" depart="101.960531876" departLane="0" id="119" route="route0" type="Car" /><vehicle arrivalLane="0" color="green" depart="101.960531876" departLane="0" id="120" route="route0" type="Car" /><vehicle arrivalLane="0" color="green" depart="101.960531876" departLane="0" id="121" route="route0" type="Car" /><vehicle arrivalLane="1" color="green" depart="101.960531876" departLane="1" id="122" route="route0" type="Car" /><vehicle arrivalLane="1" color="green" depart="102.333367613" departLane="1" id="123" route="route0" type="Car" /><vehicle arrivalLane="0" color="green" depart="105.468804302" departLane="0" id="124" route="route0" type="Car" /><vehicle arrivalLane="0" color="green" depart="105.468804302" departLane="0" id="125" route="route0" type="Car" /><vehicle arrivalLane="0" color="green" depart="105.468804302" departLane="0" id="126" route="route0" type="Car" /><vehicle arrivalLane="1" color="green" depart="105.468804302" departLane="1" id="127" route="route0" type="Car" /><vehicle arrivalLane="1" color="green" depart="105.714738798" departLane="1" id="128" route="route0" type="Car" /><vehicle arrivalLane="1" color="green" depart="107.157879182" departLane="1" id="129" route="route0" type="Car" /><vehicle arrivalLane="1" color="green" depart="107.93984732" departLane="1" id="130" route="route0" type="Car" /><vehicle arrivalLane="0" color="green" depart="110.385205155" departLane="0" id="131" route="route0" type="Car" /><vehicle arrivalLane="0" color="green" depart="110.385205155" departLane="0" id="132" route="route0" type="Car" /><vehicle arrivalLane="1" color="green" depart="110.385205155" departLane="1" id="133" route="route0" type="Car" /><vehicle arrivalLane="1" color="green" depart="112.080389569" departLane="1" id="134" route="route0" type="Car" /><vehicle arrivalLane="0" color="green" depart="116.622352463" departLane="0" id="135" route="route0" type="Car" /><vehicle arrivalLane="0" color="green" depart="116.622352463" departLane="0" id="136" route="route0" type="Car" /><vehicle arrivalLane="0" color="green" depart="116.622352463" departLane="0" id="137" route="route0" type="Car" /><vehicle arrivalLane="0" color="green" depart="116.622352463" departLane="0" id="138" route="route0" type="Car" /><vehicle arrivalLane="0" color="green" depart="116.622352463" departLane="0" id="139" route="route0" type="Car" /><vehicle arrivalLane="0" color="green" depart="116.622352463" departLane="0" id="140" route="route0" type="Car" /><vehicle arrivalLane="1" color="green" depart="116.622352463" departLane="1" id="141" route="route0" type="Car" /><vehicle arrivalLane="1" color="green" depart="117.677226028" departLane="1" id="142" route="route0" type="Car" /><vehicle arrivalLane="0" color="green" depart="118.497339273" departLane="0" id="143" route="route0" type="Car" /><vehicle arrivalLane="0" color="green" depart="118.497339273" departLane="0" id="144" route="route0" type="Car" /><vehicle arrivalLane="1" color="green" depart="118.497339273" departLane="1" id="145" route="route0" type="Car" /><vehicle arrivalLane="0" color="green" depart="119.451334153" departLane="0" id="146" route="route0" type="Car" /><vehicle arrivalLane="0" color="green" depart="119.451334153" departLane="0" id="147" route="route0" type="Car" /><vehicle arrivalLane="1" color="green" depart="119.451334153" departLane="1" id="148" route="route0" type="Car" /><vehicle arrivalLane="1" color="green" depart="120.122220068" departLane="1" id="149" route="route0" type="Car" /><vehicle arrivalLane="0" color="green" depart="123.517790988" departLane="0" id="150" route="route0" type="Car" /><vehicle arrivalLane="1" color="green" depart="123.517790988" departLane="1" id="151" route="route0" type="Car" /><vehicle arrivalLane="1" color="green" depart="124.376425242" departLane="1" id="152" route="route0" type="Car" /><vehicle arrivalLane="0" color="green" depart="125.438823001" departLane="0" id="153" route="route0" type="Car" /><vehicle arrivalLane="1" color="green" depart="125.438823001" departLane="1" id="154" route="route0" type="Car" /><vehicle arrivalLane="0" color="green" depart="127.185225069" departLane="0" id="155" route="route0" type="Car" /><vehicle arrivalLane="0" color="green" depart="127.185225069" departLane="0" id="156" route="route0" type="Car" /><vehicle arrivalLane="0" color="green" depart="127.185225069" departLane="0" id="157" route="route0" type="Car" /><vehicle arrivalLane="1" color="green" depart="127.185225069" departLane="1" id="158" route="route0" type="Car" /><vehicle arrivalLane="1" color="green" depart="127.465941713" departLane="1" id="159" route="route0" type="Car" /><vehicle arrivalLane="0" color="green" depart="129.92785749" departLane="0" id="160" route="route0" type="Car" /><vehicle arrivalLane="1" color="green" depart="129.92785749" departLane="1" id="161" route="route0" type="Car" /><vehicle arrivalLane="0" color="green" depart="136.872412493" departLane="0" id="162" route="route0" type="Car" /><vehicle arrivalLane="0" color="green" depart="136.872412493" departLane="0" id="163" route="route0" type="Car" /><vehicle arrivalLane="0" color="green" depart="136.872412493" departLane="0" id="164" route="route0" type="Car" /><vehicle arrivalLane="0" color="green" depart="136.872412493" departLane="0" id="165" route="route0" type="Car" /><vehicle arrivalLane="0" color="green" depart="136.872412493" departLane="0" id="166" route="route0" type="Car" /><vehicle arrivalLane="0" color="green" depart="136.872412493" departLane="0" id="167" route="route0" type="Car" /><vehicle arrivalLane="0" color="green" depart="136.872412493" departLane="0" id="168" route="route0" type="Car" /><vehicle arrivalLane="0" color="green" depart="136.872412493" departLane="0" id="169" route="route0" type="Car" /><vehicle arrivalLane="1" color="green" depart="136.872412493" departLane="1" id="170" route="route0" type="Car" /><vehicle arrivalLane="0" color="green" depart="141.096849674" departLane="0" id="171" route="route0" type="Car" /><vehicle arrivalLane="1" color="green" depart="141.096849674" departLane="1" id="172" route="route0" type="Car" /><vehicle arrivalLane="1" color="green" depart="143.198158113" departLane="1" id="173" route="route0" type="Car" /><vehicle arrivalLane="1" color="green" depart="156.915523607" departLane="1" id="174" route="route0" type="Car" /><vehicle arrivalLane="1" color="green" depart="157.711905634" departLane="1" id="175" route="route0" type="Car" /><vehicle arrivalLane="1" color="green" depart="160.79798539" departLane="1" id="176" route="route0" type="Car" /><vehicle arrivalLane="1" color="green" depart="160.929867127" departLane="1" id="177" route="route0" type="Car" /><vehicle arrivalLane="1" color="green" depart="160.988938972" departLane="1" id="178" route="route0" type="Car" /><vehicle arrivalLane="1" color="green" depart="163.228256467" departLane="1" id="179" route="route0" type="Car" /><vehicle arrivalLane="1" color="green" depart="166.379465897" departLane="1" id="180" route="route0" type="Car" /><vehicle arrivalLane="1" color="green" depart="171.059412187" departLane="1" id="181" route="route0" type="Car" /><vehicle arrivalLane="1" color="green" depart="174.314227433" departLane="1" id="182" route="route0" type="Car" /><vehicle arrivalLane="1" color="green" depart="178.366317432" departLane="1" id="183" route="route0" type="Car" /><vehicle arrivalLane="1" color="green" depart="178.600005371" departLane="1" id="184" route="route0" type="Car" /><vehicle arrivalLane="1" color="green" depart="180.41505621" departLane="1" id="185" route="route0" type="Car" /><vehicle arrivalLane="1" color="green" depart="183.258076393" departLane="1" id="186" route="route0" type="Car" /><vehicle arrivalLane="1" color="green" depart="183.669259056" departLane="1" id="187" route="route0" type="Car" /><vehicle arrivalLane="1" color="green" depart="185.667565043" departLane="1" id="188" route="route0" type="Car" /><vehicle arrivalLane="1" color="green" depart="186.254036201" departLane="1" id="189" route="route0" type="Car" /><vehicle arrivalLane="1" color="green" depart="188.103853702" departLane="1" id="190" route="route0" type="Car" /><vehicle arrivalLane="1" color="green" depart="192.914750029" departLane="1" id="191" route="route0" type="Car" /><vehicle arrivalLane="1" color="green" depart="194.665240348" departLane="1" id="192" route="route0" type="Car" /><vehicle arrivalLane="1" color="green" depart="194.798550485" departLane="1" id="193" route="route0" type="Car" /><vehicle arrivalLane="1" color="green" depart="195.076208659" departLane="1" id="194" route="route0" type="Car" /><vehicle arrivalLane="1" color="green" depart="197.301520512" departLane="1" id="195" route="route0" type="Car" /><vehicle arrivalLane="1" color="green" depart="197.904105686" departLane="1" id="196" route="route0" type="Car" /><vehicle arrivalLane="1" color="green" depart="198.551656454" departLane="1" id="197" route="route0" type="Car" /><vehicle arrivalLane="1" color="green" depart="198.983479438" departLane="1" id="198" route="route0" type="Car" /><vehicle arrivalLane="1" color="green" depart="201.089517839" departLane="1" id="199" route="route0" type="Car" /></routes>