<routes><vType accel="2.9" decel="7.5" id="Car" length="4.3" maxSpeed="27.78" minGap="-1" sigma="0.0" tau="0" /><vType accel="2.9" decel="7.5" id="CarVIP" length="6.5" maxSpeed="27.78" minGap="-1" sigma="0.0" tau="0" /><route edges="1to2" id="route0" /><vehicle arrivalLane="1" color="green" depart="0.632155987529" departLane="1" id="0" route="route0" type="Car" /><vehicle arrivalLane="1" color="green" depart="1.54011290932" departLane="1" id="1" route="route0" type="Car" /><vehicle arrivalLane="1" color="green" depart="1.57656706063" departLane="1" id="2" route="route0" type="Car" /><vehicle arrivalLane="1" color="green" depart="2.09784672254" departLane="1" id="3" route="route0" type="Car" /><vehicle arrivalLane="0" color="green" depart="5.34259328662" departLane="0" id="4" route="route0" type="Car" /><vehicle arrivalLane="0" color="green" depart="5.34259328662" departLane="0" id="5" route="route0" type="Car" /><vehicle arrivalLane="1" color="green" depart="5.34259328662" departLane="1" id="6" route="route0" type="Car" /><vehicle arrivalLane="0" color="green" depart="8.11090584141" departLane="0" id="7" route="route0" type="Car" /><vehicle arrivalLane="1" color="green" depart="8.11090584141" departLane="1" id="8" route="route0" type="Car" /><vehicle arrivalLane="1" color="green" depart="10.4133244988" departLane="1" id="9" route="route0" type="Car" /><vehicle arrivalLane="0" color="green" depart="13.0182923784" departLane="0" id="10" route="route0" type="Car" /><vehicle arrivalLane="1" color="green" depart="13.0182923784" departLane="1" id="11" route="route0" type="Car" /><vehicle arrivalLane="1" color="green" depart="14.3558856755" departLane="1" id="12" route="route0" type="Car" /><vehicle arrivalLane="1" color="green" depart="14.9871559301" departLane="1" id="13" route="route0" type="Car" /><vehicle arrivalLane="0" color="green" depart="17.1056091505" departLane="0" id="14" route="route0" type="Car" /><vehicle arrivalLane="1" color="green" depart="17.1056091505" departLane="1" id="15" route="route0" type="Car" /><vehicle arrivalLane="0" color="green" depart="19.3240887325" departLane="0" id="16" route="route0" type="Car" /><vehicle arrivalLane="0" color="green" depart="19.3240887325" departLane="0" id="17" route="route0" type="Car" /><vehicle arrivalLane="1" color="green" depart="19.3240887325" departLane="1" id="18" route="route0" type="Car" /><vehicle arrivalLane="0" color="green" depart="25.653226643" departLane="0" id="19" route="route0" type="Car" /><vehicle arrivalLane="0" color="green" depart="25.653226643" departLane="0" id="20" route="route0" type="Car" /><vehicle arrivalLane="1" color="green" depart="25.653226643" departLane="1" id="21" route="route0" type="Car" /><vehicle arrivalLane="0" color="green" depart="27.1521101134" departLane="0" id="22" route="route0" type="Car" /><vehicle arrivalLane="1" color="green" depart="27.1521101134" departLane="1" id="23" route="route0" type="Car" /><vehicle arrivalLane="0" color="green" depart="30.8352615366" departLane="0" id="24" route="route0" type="Car" /><vehicle arrivalLane="0" color="green" depart="30.8352615366" departLane="0" id="25" route="route0" type="Car" /><vehicle arrivalLane="1" color="green" depart="30.8352615366" departLane="1" id="26" route="route0" type="Car" /><vehicle arrivalLane="1" color="green" depart="32.0220048339" departLane="1" id="27" route="route0" type="Car" /><vehicle arrivalLane="0" color="green" depart="35.9761920147" departLane="0" id="28" route="route0" type="Car" /><vehicle arrivalLane="1" color="green" depart="35.9761920147" departLane="1" id="29" route="route0" type="Car" /><vehicle arrivalLane="0" color="green" depart="36.5191884847" departLane="0" id="30" route="route0" type="Car" /><vehicle arrivalLane="1" color="green" depart="36.5191884847" departLane="1" id="31" route="route0" type="Car" /><vehicle arrivalLane="1" color="green" depart="37.124082103" departLane="1" id="32" route="route0" type="Car" /><vehicle arrivalLane="1" color="green" depart="38.341434286" departLane="1" id="33" route="route0" type="Car" /><vehicle arrivalLane="1" color="green" depart="39.5102718603" departLane="1" id="34" route="route0" type="Car" /><vehicle arrivalLane="1" color="green" depart="41.7608246429" departLane="1" id="35" route="route0" type="Car" /><vehicle arrivalLane="1" color="green" depart="42.4809625589" departLane="1" id="36" route="route0" type="Car" /><vehicle arrivalLane="1" color="green" depart="44.2009658862" departLane="1" id="37" route="route0" type="Car" /><vehicle arrivalLane="1" color="green" depart="44.7996815525" departLane="1" id="38" route="route0" type="Car" /><vehicle arrivalLane="0" color="green" depart="56.1992096373" departLane="0" id="39" route="route0" type="Car" /><vehicle arrivalLane="0" color="green" depart="56.1992096373" departLane="0" id="40" route="route0" type="Car" /><vehicle arrivalLane="0" color="green" depart="56.1992096373" departLane="0" id="41" route="route0" type="Car" /><vehicle arrivalLane="0" color="green" depart="56.1992096373" departLane="0" id="42" route="route0" type="Car" /><vehicle arrivalLane="0" color="green" depart="56.1992096373" departLane="0" id="43" route="route0" type="Car" /><vehicle arrivalLane="0" color="green" depart="56.1992096373" departLane="0" id="44" route="route0" type="Car" /><vehicle arrivalLane="0" color="green" depart="56.1992096373" departLane="0" id="45" route="route0" type="Car" /><vehicle arrivalLane="1" color="green" depart="56.1992096373" departLane="1" id="46" route="route0" type="Car" /><vehicle arrivalLane="0" color="green" depart="58.482336703" departLane="0" id="47" route="route0" type="Car" /><vehicle arrivalLane="0" color="green" depart="58.482336703" departLane="0" id="48" route="route0" type="Car" /><vehicle arrivalLane="1" color="green" depart="58.482336703" departLane="1" id="49" route="route0" type="Car" /><vehicle arrivalLane="0" color="green" depart="60.2690256848" departLane="0" id="50" route="route0" type="Car" /><vehicle arrivalLane="1" color="green" depart="60.2690256848" departLane="1" id="51" route="route0" type="Car" /><vehicle arrivalLane="0" color="green" depart="64.5489093495" departLane="0" id="52" route="route0" type="Car" /><vehicle arrivalLane="1" color="green" depart="64.5489093495" departLane="1" id="53" route="route0" type="Car" /><vehicle arrivalLane="0" color="green" depart="65.5280362384" departLane="0" id="54" route="route0" type="Car" /><vehicle arrivalLane="1" color="green" depart="65.5280362384" departLane="1" id="55" route="route0" type="Car" /><vehicle arrivalLane="0" color="green" depart="67.2876299785" departLane="0" id="56" route="route0" type="Car" /><vehicle arrivalLane="0" color="green" depart="67.2876299785" departLane="0" id="57" route="route0" type="Car" /><vehicle arrivalLane="1" color="green" depart="67.2876299785" departLane="1" id="58" route="route0" type="Car" /><vehicle arrivalLane="0" color="green" depart="74.302947319" departLane="0" id="59" route="route0" type="Car" /><vehicle arrivalLane="0" color="green" depart="74.302947319" departLane="0" id="60" route="route0" type="Car" /><vehicle arrivalLane="0" color="green" depart="74.302947319" departLane="0" id="61" route="route0" type="Car" /><vehicle arrivalLane="0" color="green" depart="74.302947319" departLane="0" id="62" route="route0" type="Car" /><vehicle arrivalLane="1" color="green" depart="74.302947319" departLane="1" id="63" route="route0" type="Car" /><vehicle arrivalLane="1" color="green" depart="74.7633210741" departLane="1" id="64" route="route0" type="Car" /><vehicle arrivalLane="1" color="green" depart="76.8688661063" departLane="1" id="65" route="route0" type="Car" /><vehicle arrivalLane="1" color="green" depart="77.5955501562" departLane="1" id="66" route="route0" type="Car" /><vehicle arrivalLane="0" color="green" depart="81.4208683913" departLane="0" id="67" route="route0" type="Car" /><vehicle arrivalLane="0" color="green" depart="81.4208683913" departLane="0" id="68" route="route0" type="Car" /><vehicle arrivalLane="0" color="green" depart="81.4208683913" departLane="0" id="69" route="route0" type="Car" /><vehicle arrivalLane="0" color="green" depart="81.4208683913" departLane="0" id="70" route="route0" type="Car" /><vehicle arrivalLane="0" color="green" depart="81.4208683913" departLane="0" id="71" route="route0" type="Car" /><vehicle arrivalLane="1" color="green" depart="81.4208683913" departLane="1" id="72" route="route0" type="Car" /><vehicle arrivalLane="1" color="green" depart="82.1269268564" departLane="1" id="73" route="route0" type="Car" /><vehicle arrivalLane="0" color="green" depart="89.6684897599" departLane="0" id="74" route="route0" type="Car" /><vehicle arrivalLane="0" color="green" depart="89.6684897599" departLane="0" id="75" route="route0" type="Car" /><vehicle arrivalLane="0" color="green" depart="89.6684897599" departLane="0" id="76" route="route0" type="Car" /><vehicle arrivalLane="1" color="green" depart="89.6684897599" departLane="1" id="77" route="route0" type="Car" /><vehicle arrivalLane="0" color="green" depart="91.8067590952" departLane="0" id="78" route="route0" type="Car" /><vehicle arrivalLane="0" color="green" depart="91.8067590952" departLane="0" id="79" route="route0" type="Car" /><vehicle arrivalLane="1" color="green" depart="91.8067590952" departLane="1" id="80" route="route0" type="Car" /><vehicle arrivalLane="0" color="green" depart="99.7429851542" departLane="0" id="81" route="route0" type="Car" /><vehicle arrivalLane="0" color="green" depart="99.7429851542" departLane="0" id="82" route="route0" type="Car" /><vehicle arrivalLane="1" color="green" depart="99.7429851542" departLane="1" id="83" route="route0" type="Car" /><vehicle arrivalLane="1" color="green" depart="100.669761527" departLane="1" id="84" route="route0" type="Car" /><vehicle arrivalLane="0" color="green" depart="101.009965596" departLane="0" id="85" route="route0" type="Car" /><vehicle arrivalLane="1" color="green" depart="101.009965596" departLane="1" id="86" route="route0" type="Car" /><vehicle arrivalLane="1" color="green" depart="101.058506792" departLane="1" id="87" route="route0" type="Car" /><vehicle arrivalLane="0" color="green" depart="102.034104344" departLane="0" id="88" route="route0" type="Car" /><vehicle arrivalLane="1" color="green" depart="102.034104344" departLane="1" id="89" route="route0" type="Car" /><vehicle arrivalLane="1" color="green" depart="103.578314697" departLane="1" id="90" route="route0" type="Car" /><vehicle arrivalLane="0" color="green" depart="104.310117036" departLane="0" id="91" route="route0" type="Car" /><vehicle arrivalLane="1" color="green" depart="104.310117036" departLane="1" id="92" route="route0" type="Car" /><vehicle arrivalLane="0" color="green" depart="106.053478809" departLane="0" id="93" route="route0" type="Car" /><vehicle arrivalLane="1" color="green" depart="106.053478809" departLane="1" id="94" route="route0" type="Car" /><vehicle arrivalLane="0" color="green" depart="107.503296899" departLane="0" id="95" route="route0" type="Car" /><vehicle arrivalLane="0" color="green" depart="107.503296899" departLane="0" id="96" route="route0" type="Car" /><vehicle arrivalLane="1" color="green" depart="107.503296899" departLane="1" id="97" route="route0" type="Car" /><vehicle arrivalLane="1" color="green" depart="107.886108168" departLane="1" id="98" route="route0" type="Car" /><vehicle arrivalLane="1" color="green" depart="107.902803991" departLane="1" id="99" route="route0" type="Car" /><vehicle arrivalLane="1" color="green" depart="108.052316316" departLane="1" id="100" route="route0" type="Car" /><vehicle arrivalLane="0" color="red" depart="113.846162675" departLane="0" id="vip" route="route0" type="CarVIP" /><vehicle arrivalLane="0" color="green" depart="113.846162675" departLane="0" id="102" route="route0" type="Car" /><vehicle arrivalLane="0" color="green" depart="113.846162675" departLane="0" id="103" route="route0" type="Car" /><vehicle arrivalLane="0" color="green" depart="113.846162675" departLane="0" id="104" route="route0" type="Car" /><vehicle arrivalLane="0" color="green" depart="113.846162675" departLane="0" id="105" route="route0" type="Car" /><vehicle arrivalLane="0" color="green" depart="113.846162675" departLane="0" id="106" route="route0" type="Car" /><vehicle arrivalLane="1" color="green" depart="113.846162675" departLane="1" id="107" route="route0" type="Car" /><vehicle arrivalLane="1" color="green" depart="113.867702162" departLane="1" id="108" route="route0" type="Car" /><vehicle arrivalLane="1" color="green" depart="115.325930299" departLane="1" id="109" route="route0" type="Car" /><vehicle arrivalLane="1" color="green" depart="115.504797357" departLane="1" id="110" route="route0" type="Car" /><vehicle arrivalLane="1" color="green" depart="115.773453916" departLane="1" id="111" route="route0" type="Car" /><vehicle arrivalLane="1" color="green" depart="115.827476329" departLane="1" id="112" route="route0" type="Car" /><vehicle arrivalLane="0" color="green" depart="117.599800902" departLane="0" id="113" route="route0" type="Car" /><vehicle arrivalLane="0" color="green" depart="117.599800902" departLane="0" id="114" route="route0" type="Car" /><vehicle arrivalLane="1" color="green" depart="117.599800902" departLane="1" id="115" route="route0" type="Car" /><vehicle arrivalLane="0" color="green" depart="119.297936877" departLane="0" id="116" route="route0" type="Car" /><vehicle arrivalLane="1" color="green" depart="119.297936877" departLane="1" id="117" route="route0" type="Car" /><vehicle arrivalLane="0" color="green" depart="119.380332084" departLane="0" id="118" route="route0" type="Car" /><vehicle arrivalLane="1" color="green" depart="119.380332084" departLane="1" id="119" route="route0" type="Car" /><vehicle arrivalLane="1" color="green" depart="119.843596896" departLane="1" id="120" route="route0" type="Car" /><vehicle arrivalLane="1" color="green" depart="123.400455511" departLane="1" id="121" route="route0" type="Car" /><vehicle arrivalLane="0" color="green" depart="124.339108401" departLane="0" id="122" route="route0" type="Car" /><vehicle arrivalLane="1" color="green" depart="124.339108401" departLane="1" id="123" route="route0" type="Car" /><vehicle arrivalLane="1" color="green" depart="125.489953657" departLane="1" id="124" route="route0" type="Car" /><vehicle arrivalLane="0" color="green" depart="131.25960818" departLane="0" id="125" route="route0" type="Car" /><vehicle arrivalLane="0" color="green" depart="131.25960818" departLane="0" id="126" route="route0" type="Car" /><vehicle arrivalLane="0" color="green" depart="131.25960818" departLane="0" id="127" route="route0" type="Car" /><vehicle arrivalLane="0" color="green" depart="131.25960818" departLane="0" id="128" route="route0" type="Car" /><vehicle arrivalLane="1" color="green" depart="131.25960818" departLane="1" id="129" route="route0" type="Car" /><vehicle arrivalLane="0" color="green" depart="135.805693137" departLane="0" id="130" route="route0" type="Car" /><vehicle arrivalLane="0" color="green" depart="135.805693137" departLane="0" id="131" route="route0" type="Car" /><vehicle arrivalLane="0" color="green" depart="135.805693137" departLane="0" id="132" route="route0" type="Car" /><vehicle arrivalLane="1" color="green" depart="135.805693137" departLane="1" id="133" route="route0" type="Car" /><vehicle arrivalLane="1" color="green" depart="136.155538987" departLane="1" id="134" route="route0" type="Car" /><vehicle arrivalLane="0" color="green" depart="140.835121234" departLane="0" id="135" route="route0" type="Car" /><vehicle arrivalLane="0" color="green" depart="140.835121234" departLane="0" id="136" route="route0" type="Car" /><vehicle arrivalLane="1" color="green" depart="140.835121234" departLane="1" id="137" route="route0" type="Car" /><vehicle arrivalLane="1" color="green" depart="141.461035326" departLane="1" id="138" route="route0" type="Car" /><vehicle arrivalLane="0" color="green" depart="145.150321861" departLane="0" id="139" route="route0" type="Car" /><vehicle arrivalLane="0" color="green" depart="145.150321861" departLane="0" id="140" route="route0" type="Car" /><vehicle arrivalLane="0" color="green" depart="145.150321861" departLane="0" id="141" route="route0" type="Car" /><vehicle arrivalLane="1" color="green" depart="145.150321861" departLane="1" id="142" route="route0" type="Car" /><vehicle arrivalLane="0" color="green" depart="145.845157271" departLane="0" id="143" route="route0" type="Car" /><vehicle arrivalLane="1" color="green" depart="145.845157271" departLane="1" id="144" route="route0" type="Car" /><vehicle arrivalLane="0" color="green" depart="149.602632233" departLane="0" id="145" route="route0" type="Car" /><vehicle arrivalLane="0" color="green" depart="149.602632233" departLane="0" id="146" route="route0" type="Car" /><vehicle arrivalLane="1" color="green" depart="149.602632233" departLane="1" id="147" route="route0" type="Car" /><vehicle arrivalLane="1" color="green" depart="150.399091888" departLane="1" id="148" route="route0" type="Car" /><vehicle arrivalLane="1" color="green" depart="150.899779434" departLane="1" id="149" route="route0" type="Car" /><vehicle arrivalLane="0" color="green" depart="155.805309293" departLane="0" id="150" route="route0" type="Car" /><vehicle arrivalLane="1" color="green" depart="155.805309293" departLane="1" id="151" route="route0" type="Car" /><vehicle arrivalLane="0" color="green" depart="157.893695693" departLane="0" id="152" route="route0" type="Car" /><vehicle arrivalLane="0" color="green" depart="157.893695693" departLane="0" id="153" route="route0" type="Car" /><vehicle arrivalLane="0" color="green" depart="157.893695693" departLane="0" id="154" route="route0" type="Car" /><vehicle arrivalLane="1" color="green" depart="157.893695693" departLane="1" id="155" route="route0" type="Car" /><vehicle arrivalLane="0" color="green" depart="159.362627045" departLane="0" id="156" route="route0" type="Car" /><vehicle arrivalLane="1" color="green" depart="159.362627045" departLane="1" id="157" route="route0" type="Car" /><vehicle arrivalLane="0" color="green" depart="159.937907243" departLane="0" id="158" route="route0" type="Car" /><vehicle arrivalLane="1" color="green" depart="159.937907243" departLane="1" id="159" route="route0" type="Car" /><vehicle arrivalLane="0" color="green" depart="166.395689152" departLane="0" id="160" route="route0" type="Car" /><vehicle arrivalLane="0" color="green" depart="166.395689152" departLane="0" id="161" route="route0" type="Car" /><vehicle arrivalLane="0" color="green" depart="166.395689152" departLane="0" id="162" route="route0" type="Car" /><vehicle arrivalLane="1" color="green" depart="166.395689152" departLane="1" id="163" route="route0" type="Car" /><vehicle arrivalLane="1" color="green" depart="166.477802514" departLane="1" id="164" route="route0" type="Car" /><vehicle arrivalLane="1" color="green" depart="168.071618139" departLane="1" id="165" route="route0" type="Car" /><vehicle arrivalLane="0" color="green" depart="169.224892693" departLane="0" id="166" route="route0" type="Car" /><vehicle arrivalLane="1" color="green" depart="169.224892693" departLane="1" id="167" route="route0" type="Car" /><vehicle arrivalLane="1" color="green" depart="169.553494559" departLane="1" id="168" route="route0" type="Car" /><vehicle arrivalLane="0" color="green" depart="173.469543206" departLane="0" id="169" route="route0" type="Car" /><vehicle arrivalLane="0" color="green" depart="173.469543206" departLane="0" id="170" route="route0" type="Car" /><vehicle arrivalLane="1" color="green" depart="173.469543206" departLane="1" id="171" route="route0" type="Car" /><vehicle arrivalLane="1" color="green" depart="174.34276327" departLane="1" id="172" route="route0" type="Car" /><vehicle arrivalLane="1" color="green" depart="175.715943769" departLane="1" id="173" route="route0" type="Car" /><vehicle arrivalLane="1" color="green" depart="176.190998342" departLane="1" id="174" route="route0" type="Car" /><vehicle arrivalLane="0" color="green" depart="179.818669395" departLane="0" id="175" route="route0" type="Car" /><vehicle arrivalLane="0" color="green" depart="179.818669395" departLane="0" id="176" route="route0" type="Car" /><vehicle arrivalLane="1" color="green" depart="179.818669395" departLane="1" id="177" route="route0" type="Car" /><vehicle arrivalLane="0" color="green" depart="181.048984671" departLane="0" id="178" route="route0" type="Car" /><vehicle arrivalLane="1" color="green" depart="181.048984671" departLane="1" id="179" route="route0" type="Car" /><vehicle arrivalLane="1" color="green" depart="181.078045294" departLane="1" id="180" route="route0" type="Car" /><vehicle arrivalLane="1" color="green" depart="181.221111285" departLane="1" id="181" route="route0" type="Car" /><vehicle arrivalLane="1" color="green" depart="181.309185094" departLane="1" id="182" route="route0" type="Car" /><vehicle arrivalLane="0" color="green" depart="182.621621515" departLane="0" id="183" route="route0" type="Car" /><vehicle arrivalLane="1" color="green" depart="182.621621515" departLane="1" id="184" route="route0" type="Car" /><vehicle arrivalLane="0" color="green" depart="183.896763105" departLane="0" id="185" route="route0" type="Car" /><vehicle arrivalLane="1" color="green" depart="183.896763105" departLane="1" id="186" route="route0" type="Car" /><vehicle arrivalLane="0" color="green" depart="184.972729211" departLane="0" id="187" route="route0" type="Car" /><vehicle arrivalLane="1" color="green" depart="184.972729211" departLane="1" id="188" route="route0" type="Car" /><vehicle arrivalLane="0" color="green" depart="188.9823159" departLane="0" id="189" route="route0" type="Car" /><vehicle arrivalLane="1" color="green" depart="188.9823159" departLane="1" id="190" route="route0" type="Car" /><vehicle arrivalLane="0" color="green" depart="190.100238593" departLane="0" id="191" route="route0" type="Car" /><vehicle arrivalLane="0" color="green" depart="190.100238593" departLane="0" id="192" route="route0" type="Car" /><vehicle arrivalLane="0" color="green" depart="190.100238593" departLane="0" id="193" route="route0" type="Car" /><vehicle arrivalLane="1" color="green" depart="190.100238593" departLane="1" id="194" route="route0" type="Car" /><vehicle arrivalLane="1" color="green" depart="192.349241074" departLane="1" id="195" route="route0" type="Car" /><vehicle arrivalLane="0" color="green" depart="195.30398587" departLane="0" id="196" route="route0" type="Car" /><vehicle arrivalLane="0" color="green" depart="195.30398587" departLane="0" id="197" route="route0" type="Car" /><vehicle arrivalLane="1" color="green" depart="195.30398587" departLane="1" id="198" route="route0" type="Car" /><vehicle arrivalLane="1" color="green" depart="197.199591497" departLane="1" id="199" route="route0" type="Car" /></routes>