<routes><vType accel="2.9" decel="7.5" id="Car" length="4.3" maxSpeed="27.78" minGap="-1" sigma="0.0" tau="0" /><vType accel="2.9" decel="7.5" id="CarVIP" length="6.5" maxSpeed="27.78" minGap="-1" sigma="0.0" tau="0" /><route edges="1to2" id="route0" /><vehicle arrivalLane="1" color="green" depart="2.06236694625" departLane="1" id="0" route="route0" type="Car" /><vehicle arrivalLane="0" color="green" depart="2.70642875545" departLane="0" id="1" route="route0" type="Car" /><vehicle arrivalLane="1" color="green" depart="2.70642875545" departLane="1" id="2" route="route0" type="Car" /><vehicle arrivalLane="0" color="green" depart="3.83083955998" departLane="0" id="3" route="route0" type="Car" /><vehicle arrivalLane="1" color="green" depart="3.83083955998" departLane="1" id="4" route="route0" type="Car" /><vehicle arrivalLane="1" color="green" depart="4.42287804872" departLane="1" id="5" route="route0" type="Car" /><vehicle arrivalLane="0" color="green" depart="8.97723568306" departLane="0" id="6" route="route0" type="Car" /><vehicle arrivalLane="0" color="green" depart="8.97723568306" departLane="0" id="7" route="route0" type="Car" /><vehicle arrivalLane="1" color="green" depart="8.97723568306" departLane="1" id="8" route="route0" type="Car" /><vehicle arrivalLane="1" color="green" depart="9.85468648386" departLane="1" id="9" route="route0" type="Car" /><vehicle arrivalLane="0" color="green" depart="11.3648836413" departLane="0" id="10" route="route0" type="Car" /><vehicle arrivalLane="1" color="green" depart="11.3648836413" departLane="1" id="11" route="route0" type="Car" /><vehicle arrivalLane="1" color="green" depart="11.5026038646" departLane="1" id="12" route="route0" type="Car" /><vehicle arrivalLane="0" color="green" depart="16.8977710793" departLane="0" id="13" route="route0" type="Car" /><vehicle arrivalLane="1" color="green" depart="16.8977710793" departLane="1" id="14" route="route0" type="Car" /><vehicle arrivalLane="0" color="green" depart="19.0953523262" departLane="0" id="15" route="route0" type="Car" /><vehicle arrivalLane="1" color="green" depart="19.0953523262" departLane="1" id="16" route="route0" type="Car" /><vehicle arrivalLane="1" color="green" depart="19.924860807" departLane="1" id="17" route="route0" type="Car" /><vehicle arrivalLane="0" color="green" depart="25.1202891462" departLane="0" id="18" route="route0" type="Car" /><vehicle arrivalLane="0" color="green" depart="25.1202891462" departLane="0" id="19" route="route0" type="Car" /><vehicle arrivalLane="0" color="green" depart="25.1202891462" departLane="0" id="20" route="route0" type="Car" /><vehicle arrivalLane="0" color="green" depart="25.1202891462" departLane="0" id="21" route="route0" type="Car" /><vehicle arrivalLane="0" color="green" depart="25.1202891462" departLane="0" id="22" route="route0" type="Car" /><vehicle arrivalLane="1" color="green" depart="25.1202891462" departLane="1" id="23" route="route0" type="Car" /><vehicle arrivalLane="1" color="green" depart="25.739983417" departLane="1" id="24" route="route0" type="Car" /><vehicle arrivalLane="1" color="green" depart="25.9295011265" departLane="1" id="25" route="route0" type="Car" /><vehicle arrivalLane="1" color="green" depart="27.4063965083" departLane="1" id="26" route="route0" type="Car" /><vehicle arrivalLane="1" color="green" depart="27.8122071167" departLane="1" id="27" route="route0" type="Car" /><vehicle arrivalLane="0" color="green" depart="28.3887799791" departLane="0" id="28" route="route0" type="Car" /><vehicle arrivalLane="1" color="green" depart="28.3887799791" departLane="1" id="29" route="route0" type="Car" /><vehicle arrivalLane="0" color="green" depart="30.0352872508" departLane="0" id="30" route="route0" type="Car" /><vehicle arrivalLane="0" color="green" depart="30.0352872508" departLane="0" id="31" route="route0" type="Car" /><vehicle arrivalLane="1" color="green" depart="30.0352872508" departLane="1" id="32" route="route0" type="Car" /><vehicle arrivalLane="1" color="green" depart="30.8381701004" departLane="1" id="33" route="route0" type="Car" /><vehicle arrivalLane="1" color="green" depart="32.0799318314" departLane="1" id="34" route="route0" type="Car" /><vehicle arrivalLane="1" color="green" depart="32.5497218804" departLane="1" id="35" route="route0" type="Car" /><vehicle arrivalLane="1" color="green" depart="33.5044841559" departLane="1" id="36" route="route0" type="Car" /><vehicle arrivalLane="0" color="green" depart="37.6492192091" departLane="0" id="37" route="route0" type="Car" /><vehicle arrivalLane="0" color="green" depart="37.6492192091" departLane="0" id="38" route="route0" type="Car" /><vehicle arrivalLane="1" color="green" depart="37.6492192091" departLane="1" id="39" route="route0" type="Car" /><vehicle arrivalLane="1" color="green" depart="40.0886583836" departLane="1" id="40" route="route0" type="Car" /><vehicle arrivalLane="1" color="green" depart="41.0005962976" departLane="1" id="41" route="route0" type="Car" /><vehicle arrivalLane="1" color="green" depart="42.562593371" departLane="1" id="42" route="route0" type="Car" /><vehicle arrivalLane="0" color="green" depart="48.4576345074" departLane="0" id="43" route="route0" type="Car" /><vehicle arrivalLane="1" color="green" depart="48.4576345074" departLane="1" id="44" route="route0" type="Car" /><vehicle arrivalLane="0" color="green" depart="54.8622072006" departLane="0" id="45" route="route0" type="Car" /><vehicle arrivalLane="1" color="green" depart="54.8622072006" departLane="1" id="46" route="route0" type="Car" /><vehicle arrivalLane="0" color="green" depart="57.3098124651" departLane="0" id="47" route="route0" type="Car" /><vehicle arrivalLane="0" color="green" depart="57.3098124651" departLane="0" id="48" route="route0" type="Car" /><vehicle arrivalLane="0" color="green" depart="57.3098124651" departLane="0" id="49" route="route0" type="Car" /><vehicle arrivalLane="1" color="green" depart="57.3098124651" departLane="1" id="50" route="route0" type="Car" /><vehicle arrivalLane="0" color="green" depart="57.9808330186" departLane="0" id="51" route="route0" type="Car" /><vehicle arrivalLane="1" color="green" depart="57.9808330186" departLane="1" id="52" route="route0" type="Car" /><vehicle arrivalLane="0" color="green" depart="61.4836036269" departLane="0" id="53" route="route0" type="Car" /><vehicle arrivalLane="0" color="green" depart="61.4836036269" departLane="0" id="54" route="route0" type="Car" /><vehicle arrivalLane="1" color="green" depart="61.4836036269" departLane="1" id="55" route="route0" type="Car" /><vehicle arrivalLane="0" color="green" depart="62.9991695182" departLane="0" id="56" route="route0" type="Car" /><vehicle arrivalLane="1" color="green" depart="62.9991695182" departLane="1" id="57" route="route0" type="Car" /><vehicle arrivalLane="0" color="green" depart="66.6192326727" departLane="0" id="58" route="route0" type="Car" /><vehicle arrivalLane="1" color="green" depart="66.6192326727" departLane="1" id="59" route="route0" type="Car" /><vehicle arrivalLane="0" color="green" depart="72.1249967643" departLane="0" id="60" route="route0" type="Car" /><vehicle arrivalLane="0" color="green" depart="72.1249967643" departLane="0" id="61" route="route0" type="Car" /><vehicle arrivalLane="1" color="green" depart="72.1249967643" departLane="1" id="62" route="route0" type="Car" /><vehicle arrivalLane="1" color="green" depart="72.490704079" departLane="1" id="63" route="route0" type="Car" /><vehicle arrivalLane="0" color="green" depart="73.5940691753" departLane="0" id="64" route="route0" type="Car" /><vehicle arrivalLane="0" color="green" depart="73.5940691753" departLane="0" id="65" route="route0" type="Car" /><vehicle arrivalLane="1" color="green" depart="73.5940691753" departLane="1" id="66" route="route0" type="Car" /><vehicle arrivalLane="0" color="green" depart="79.7078599999" departLane="0" id="67" route="route0" type="Car" /><vehicle arrivalLane="0" color="green" depart="79.7078599999" departLane="0" id="68" route="route0" type="Car" /><vehicle arrivalLane="0" color="green" depart="79.7078599999" departLane="0" id="69" route="route0" type="Car" /><vehicle arrivalLane="0" color="green" depart="79.7078599999" departLane="0" id="70" route="route0" type="Car" /><vehicle arrivalLane="1" color="green" depart="79.7078599999" departLane="1" id="71" route="route0" type="Car" /><vehicle arrivalLane="0" color="green" depart="80.1293413223" departLane="0" id="72" route="route0" type="Car" /><vehicle arrivalLane="0" color="green" depart="80.1293413223" departLane="0" id="73" route="route0" type="Car" /><vehicle arrivalLane="1" color="green" depart="80.1293413223" departLane="1" id="74" route="route0" type="Car" /><vehicle arrivalLane="0" color="green" depart="81.3556118414" departLane="0" id="75" route="route0" type="Car" /><vehicle arrivalLane="0" color="green" depart="81.3556118414" departLane="0" id="76" route="route0" type="Car" /><vehicle arrivalLane="0" color="green" depart="81.3556118414" departLane="0" id="77" route="route0" type="Car" /><vehicle arrivalLane="1" color="green" depart="81.3556118414" departLane="1" id="78" route="route0" type="Car" /><vehicle arrivalLane="0" color="green" depart="83.4828523521" departLane="0" id="79" route="route0" type="Car" /><vehicle arrivalLane="1" color="green" depart="83.4828523521" departLane="1" id="80" route="route0" type="Car" /><vehicle arrivalLane="0" color="green" depart="84.8845481554" departLane="0" id="81" route="route0" type="Car" /><vehicle arrivalLane="1" color="green" depart="84.8845481554" departLane="1" id="82" route="route0" type="Car" /><vehicle arrivalLane="0" color="green" depart="87.3481860935" departLane="0" id="83" route="route0" type="Car" /><vehicle arrivalLane="1" color="green" depart="87.3481860935" departLane="1" id="84" route="route0" type="Car" /><vehicle arrivalLane="0" color="green" depart="89.8276560384" departLane="0" id="85" route="route0" type="Car" /><vehicle arrivalLane="0" color="green" depart="89.8276560384" departLane="0" id="86" route="route0" type="Car" /><vehicle arrivalLane="0" color="green" depart="89.8276560384" departLane="0" id="87" route="route0" type="Car" /><vehicle arrivalLane="1" color="green" depart="89.8276560384" departLane="1" id="88" route="route0" type="Car" /><vehicle arrivalLane="0" color="green" depart="94.1605099311" departLane="0" id="89" route="route0" type="Car" /><vehicle arrivalLane="0" color="green" depart="94.1605099311" departLane="0" id="90" route="route0" type="Car" /><vehicle arrivalLane="1" color="green" depart="94.1605099311" departLane="1" id="91" route="route0" type="Car" /><vehicle arrivalLane="0" color="green" depart="96.0377584762" departLane="0" id="92" route="route0" type="Car" /><vehicle arrivalLane="1" color="green" depart="96.0377584762" departLane="1" id="93" route="route0" type="Car" /><vehicle arrivalLane="0" color="green" depart="98.8251357632" departLane="0" id="94" route="route0" type="Car" /><vehicle arrivalLane="1" color="green" depart="98.8251357632" departLane="1" id="95" route="route0" type="Car" /><vehicle arrivalLane="0" color="red" depart="101.706608941" departLane="0" id="vip" route="route0" type="CarVIP" /><vehicle arrivalLane="1" color="green" depart="101.706608941" departLane="1" id="97" route="route0" type="Car" /><vehicle arrivalLane="1" color="green" depart="104.488058793" departLane="1" id="98" route="route0" type="Car" /><vehicle arrivalLane="0" color="green" depart="106.66461992" departLane="0" id="99" route="route0" type="Car" /><vehicle arrivalLane="0" color="green" depart="106.66461992" departLane="0" id="100" route="route0" type="Car" /><vehicle arrivalLane="0" color="green" depart="106.66461992" departLane="0" id="101" route="route0" type="Car" /><vehicle arrivalLane="0" color="green" depart="106.66461992" departLane="0" id="102" route="route0" type="Car" /><vehicle arrivalLane="1" color="green" depart="106.66461992" departLane="1" id="103" route="route0" type="Car" /><vehicle arrivalLane="1" color="green" depart="107.094832439" departLane="1" id="104" route="route0" type="Car" /><vehicle arrivalLane="0" color="green" depart="108.990323939" departLane="0" id="105" route="route0" type="Car" /><vehicle arrivalLane="1" color="green" depart="108.990323939" departLane="1" id="106" route="route0" type="Car" /><vehicle arrivalLane="0" color="green" depart="110.383190682" departLane="0" id="107" route="route0" type="Car" /><vehicle arrivalLane="1" color="green" depart="110.383190682" departLane="1" id="108" route="route0" type="Car" /><vehicle arrivalLane="1" color="green" depart="111.079973868" departLane="1" id="109" route="route0" type="Car" /><vehicle arrivalLane="1" color="green" depart="111.446650769" departLane="1" id="110" route="route0" type="Car" /><vehicle arrivalLane="1" color="green" depart="111.897452866" departLane="1" id="111" route="route0" type="Car" /><vehicle arrivalLane="0" color="green" depart="113.93290968" departLane="0" id="112" route="route0" type="Car" /><vehicle arrivalLane="1" color="green" depart="113.93290968" departLane="1" id="113" route="route0" type="Car" /><vehicle arrivalLane="0" color="green" depart="115.499230336" departLane="0" id="114" route="route0" type="Car" /><vehicle arrivalLane="1" color="green" depart="115.499230336" departLane="1" id="115" route="route0" type="Car" /><vehicle arrivalLane="0" color="green" depart="116.831424753" departLane="0" id="116" route="route0" type="Car" /><vehicle arrivalLane="1" color="green" depart="116.831424753" departLane="1" id="117" route="route0" type="Car" /><vehicle arrivalLane="1" color="green" depart="117.067891276" departLane="1" id="118" route="route0" type="Car" /><vehicle arrivalLane="1" color="green" depart="117.183120107" departLane="1" id="119" route="route0" type="Car" /><vehicle arrivalLane="1" color="green" depart="117.406735405" departLane="1" id="120" route="route0" type="Car" /><vehicle arrivalLane="0" color="green" depart="122.668747834" departLane="0" id="121" route="route0" type="Car" /><vehicle arrivalLane="1" color="green" depart="122.668747834" departLane="1" id="122" route="route0" type="Car" /><vehicle arrivalLane="1" color="green" depart="123.871049603" departLane="1" id="123" route="route0" type="Car" /><vehicle arrivalLane="0" color="green" depart="125.389569517" departLane="0" id="124" route="route0" type="Car" /><vehicle arrivalLane="0" color="green" depart="125.389569517" departLane="0" id="125" route="route0" type="Car" /><vehicle arrivalLane="0" color="green" depart="125.389569517" departLane="0" id="126" route="route0" type="Car" /><vehicle arrivalLane="0" color="green" depart="125.389569517" departLane="0" id="127" route="route0" type="Car" /><vehicle arrivalLane="1" color="green" depart="125.389569517" departLane="1" id="128" route="route0" type="Car" /><vehicle arrivalLane="0" color="green" depart="129.78495945" departLane="0" id="129" route="route0" type="Car" /><vehicle arrivalLane="0" color="green" depart="129.78495945" departLane="0" id="130" route="route0" type="Car" /><vehicle arrivalLane="0" color="green" depart="129.78495945" departLane="0" id="131" route="route0" type="Car" /><vehicle arrivalLane="0" color="green" depart="129.78495945" departLane="0" id="132" route="route0" type="Car" /><vehicle arrivalLane="1" color="green" depart="129.78495945" departLane="1" id="133" route="route0" type="Car" /><vehicle arrivalLane="0" color="green" depart="130.771190283" departLane="0" id="134" route="route0" type="Car" /><vehicle arrivalLane="1" color="green" depart="130.771190283" departLane="1" id="135" route="route0" type="Car" /><vehicle arrivalLane="0" color="green" depart="137.594415672" departLane="0" id="136" route="route0" type="Car" /><vehicle arrivalLane="0" color="green" depart="137.594415672" departLane="0" id="137" route="route0" type="Car" /><vehicle arrivalLane="1" color="green" depart="137.594415672" departLane="1" id="138" route="route0" type="Car" /><vehicle arrivalLane="0" color="green" depart="143.859355796" departLane="0" id="139" route="route0" type="Car" /><vehicle arrivalLane="0" color="green" depart="143.859355796" departLane="0" id="140" route="route0" type="Car" /><vehicle arrivalLane="0" color="green" depart="143.859355796" departLane="0" id="141" route="route0" type="Car" /><vehicle arrivalLane="1" color="green" depart="143.859355796" departLane="1" id="142" route="route0" type="Car" /><vehicle arrivalLane="1" color="green" depart="143.896940021" departLane="1" id="143" route="route0" type="Car" /><vehicle arrivalLane="1" color="green" depart="144.063378816" departLane="1" id="144" route="route0" type="Car" /><vehicle arrivalLane="1" color="green" depart="144.51715832" departLane="1" id="145" route="route0" type="Car" /><vehicle arrivalLane="0" color="green" depart="145.524181909" departLane="0" id="146" route="route0" type="Car" /><vehicle arrivalLane="1" color="green" depart="145.524181909" departLane="1" id="147" route="route0" type="Car" /><vehicle arrivalLane="1" color="green" depart="147.061496692" departLane="1" id="148" route="route0" type="Car" /><vehicle arrivalLane="0" color="green" depart="148.949604612" departLane="0" id="149" route="route0" type="Car" /><vehicle arrivalLane="0" color="green" depart="148.949604612" departLane="0" id="150" route="route0" type="Car" /><vehicle arrivalLane="1" color="green" depart="148.949604612" departLane="1" id="151" route="route0" type="Car" /><vehicle arrivalLane="1" color="green" depart="149.509416252" departLane="1" id="152" route="route0" type="Car" /><vehicle arrivalLane="0" color="green" depart="151.113424598" departLane="0" id="153" route="route0" type="Car" /><vehicle arrivalLane="0" color="green" depart="151.113424598" departLane="0" id="154" route="route0" type="Car" /><vehicle arrivalLane="1" color="green" depart="151.113424598" departLane="1" id="155" route="route0" type="Car" /><vehicle arrivalLane="1" color="green" depart="151.309561345" departLane="1" id="156" route="route0" type="Car" /><vehicle arrivalLane="1" color="green" depart="152.047007815" departLane="1" id="157" route="route0" type="Car" /><vehicle arrivalLane="1" color="green" depart="153.959241089" departLane="1" id="158" route="route0" type="Car" /><vehicle arrivalLane="0" color="green" depart="156.631487531" departLane="0" id="159" route="route0" type="Car" /><vehicle arrivalLane="1" color="green" depart="156.631487531" departLane="1" id="160" route="route0" type="Car" /><vehicle arrivalLane="1" color="green" depart="157.036121349" departLane="1" id="161" route="route0" type="Car" /><vehicle arrivalLane="1" color="green" depart="158.548693945" departLane="1" id="162" route="route0" type="Car" /><vehicle arrivalLane="1" color="green" depart="158.744684073" departLane="1" id="163" route="route0" type="Car" /><vehicle arrivalLane="0" color="green" depart="164.013462813" departLane="0" id="164" route="route0" type="Car" /><vehicle arrivalLane="0" color="green" depart="164.013462813" departLane="0" id="165" route="route0" type="Car" /><vehicle arrivalLane="1" color="green" depart="164.013462813" departLane="1" id="166" route="route0" type="Car" /><vehicle arrivalLane="1" color="green" depart="164.645238771" departLane="1" id="167" route="route0" type="Car" /><vehicle arrivalLane="0" color="green" depart="166.229470268" departLane="0" id="168" route="route0" type="Car" /><vehicle arrivalLane="1" color="green" depart="166.229470268" departLane="1" id="169" route="route0" type="Car" /><vehicle arrivalLane="1" color="green" depart="166.836380606" departLane="1" id="170" route="route0" type="Car" /><vehicle arrivalLane="0" color="green" depart="173.296230536" departLane="0" id="171" route="route0" type="Car" /><vehicle arrivalLane="0" color="green" depart="173.296230536" departLane="0" id="172" route="route0" type="Car" /><vehicle arrivalLane="0" color="green" depart="173.296230536" departLane="0" id="173" route="route0" type="Car" /><vehicle arrivalLane="1" color="green" depart="173.296230536" departLane="1" id="174" route="route0" type="Car" /><vehicle arrivalLane="1" color="green" depart="174.749176571" departLane="1" id="175" route="route0" type="Car" /><vehicle arrivalLane="1" color="green" depart="174.895415151" departLane="1" id="176" route="route0" type="Car" /><vehicle arrivalLane="0" color="green" depart="176.711383985" departLane="0" id="177" route="route0" type="Car" /><vehicle arrivalLane="1" color="green" depart="176.711383985" departLane="1" id="178" route="route0" type="Car" /><vehicle arrivalLane="1" color="green" depart="179.59979559" departLane="1" id="179" route="route0" type="Car" /><vehicle arrivalLane="1" color="green" depart="183.465107731" departLane="1" id="180" route="route0" type="Car" /><vehicle arrivalLane="0" color="green" depart="187.392802823" departLane="0" id="181" route="route0" type="Car" /><vehicle arrivalLane="1" color="green" depart="187.392802823" departLane="1" id="182" route="route0" type="Car" /><vehicle arrivalLane="0" color="green" depart="190.044996505" departLane="0" id="183" route="route0" type="Car" /><vehicle arrivalLane="0" color="green" depart="190.044996505" departLane="0" id="184" route="route0" type="Car" /><vehicle arrivalLane="0" color="green" depart="190.044996505" departLane="0" id="185" route="route0" type="Car" /><vehicle arrivalLane="0" color="green" depart="190.044996505" departLane="0" id="186" route="route0" type="Car" /><vehicle arrivalLane="1" color="green" depart="190.044996505" departLane="1" id="187" route="route0" type="Car" /><vehicle arrivalLane="0" color="green" depart="198.419191564" departLane="0" id="188" route="route0" type="Car" /><vehicle arrivalLane="0" color="green" depart="198.419191564" departLane="0" id="189" route="route0" type="Car" /><vehicle arrivalLane="0" color="green" depart="198.419191564" departLane="0" id="190" route="route0" type="Car" /><vehicle arrivalLane="1" color="green" depart="198.419191564" departLane="1" id="191" route="route0" type="Car" /><vehicle arrivalLane="0" color="green" depart="199.036304877" departLane="0" id="192" route="route0" type="Car" /><vehicle arrivalLane="1" color="green" depart="199.036304877" departLane="1" id="193" route="route0" type="Car" /><vehicle arrivalLane="0" color="green" depart="203.119972897" departLane="0" id="194" route="route0" type="Car" /><vehicle arrivalLane="1" color="green" depart="203.119972897" departLane="1" id="195" route="route0" type="Car" /><vehicle arrivalLane="0" color="green" depart="205.479222764" departLane="0" id="196" route="route0" type="Car" /><vehicle arrivalLane="0" color="green" depart="205.479222764" departLane="0" id="197" route="route0" type="Car" /><vehicle arrivalLane="1" color="green" depart="205.479222764" departLane="1" id="198" route="route0" type="Car" /><vehicle arrivalLane="1" color="green" depart="206.435967057" departLane="1" id="199" route="route0" type="Car" /></routes>