<routes><vType accel="2.9" decel="7.5" id="Car" length="4.3" maxSpeed="27.78" minGap="-1" sigma="0.0" tau="0" /><vType accel="2.9" decel="7.5" id="CarVIP" length="6.5" maxSpeed="27.78" minGap="-1" sigma="0.0" tau="0" /><route edges="1to2" id="route0" /><vehicle arrivalLane="1" color="green" depart="0.118183963612" departLane="1" id="0" route="route0" type="Car" /><vehicle arrivalLane="0" color="green" depart="4.65962858871" departLane="0" id="1" route="route0" type="Car" /><vehicle arrivalLane="0" color="green" depart="4.65962858871" departLane="0" id="2" route="route0" type="Car" /><vehicle arrivalLane="1" color="green" depart="4.65962858871" departLane="1" id="3" route="route0" type="Car" /><vehicle arrivalLane="0" color="green" depart="8.57095704181" departLane="0" id="4" route="route0" type="Car" /><vehicle arrivalLane="0" color="green" depart="8.57095704181" departLane="0" id="5" route="route0" type="Car" /><vehicle arrivalLane="0" color="green" depart="8.57095704181" departLane="0" id="6" route="route0" type="Car" /><vehicle arrivalLane="1" color="green" depart="8.57095704181" departLane="1" id="7" route="route0" type="Car" /><vehicle arrivalLane="0" color="green" depart="11.7175028343" departLane="0" id="8" route="route0" type="Car" /><vehicle arrivalLane="0" color="green" depart="11.7175028343" departLane="0" id="9" route="route0" type="Car" /><vehicle arrivalLane="1" color="green" depart="11.7175028343" departLane="1" id="10" route="route0" type="Car" /><vehicle arrivalLane="0" color="green" depart="13.2072086838" departLane="0" id="11" route="route0" type="Car" /><vehicle arrivalLane="0" color="green" depart="13.2072086838" departLane="0" id="12" route="route0" type="Car" /><vehicle arrivalLane="1" color="green" depart="13.2072086838" departLane="1" id="13" route="route0" type="Car" /><vehicle arrivalLane="0" color="green" depart="15.7132615781" departLane="0" id="14" route="route0" type="Car" /><vehicle arrivalLane="1" color="green" depart="15.7132615781" departLane="1" id="15" route="route0" type="Car" /><vehicle arrivalLane="0" color="green" depart="22.2024855135" departLane="0" id="16" route="route0" type="Car" /><vehicle arrivalLane="0" color="green" depart="22.2024855135" departLane="0" id="17" route="route0" type="Car" /><vehicle arrivalLane="0" color="green" depart="22.2024855135" departLane="0" id="18" route="route0" type="Car" /><vehicle arrivalLane="1" color="green" depart="22.2024855135" departLane="1" id="19" route="route0" type="Car" /><vehicle arrivalLane="0" color="green" depart="25.6496259847" departLane="0" id="20" route="route0" type="Car" /><vehicle arrivalLane="0" color="green" depart="25.6496259847" departLane="0" id="21" route="route0" type="Car" /><vehicle arrivalLane="0" color="green" depart="25.6496259847" departLane="0" id="22" route="route0" type="Car" /><vehicle arrivalLane="1" color="green" depart="25.6496259847" departLane="1" id="23" route="route0" type="Car" /><vehicle arrivalLane="1" color="green" depart="27.2288296007" departLane="1" id="24" route="route0" type="Car" /><vehicle arrivalLane="1" color="green" depart="30.122177516" departLane="1" id="25" route="route0" type="Car" /><vehicle arrivalLane="1" color="green" depart="31.3103573769" departLane="1" id="26" route="route0" type="Car" /><vehicle arrivalLane="1" color="green" depart="31.3970893102" departLane="1" id="27" route="route0" type="Car" /><vehicle arrivalLane="1" color="green" depart="36.1052151395" departLane="1" id="28" route="route0" type="Car" /><vehicle arrivalLane="1" color="green" depart="36.1891031541" departLane="1" id="29" route="route0" type="Car" /><vehicle arrivalLane="1" color="green" depart="36.419127611" departLane="1" id="30" route="route0" type="Car" /><vehicle arrivalLane="0" color="green" depart="42.0800735602" departLane="0" id="31" route="route0" type="Car" /><vehicle arrivalLane="0" color="green" depart="42.0800735602" departLane="0" id="32" route="route0" type="Car" /><vehicle arrivalLane="0" color="green" depart="42.0800735602" departLane="0" id="33" route="route0" type="Car" /><vehicle arrivalLane="0" color="green" depart="42.0800735602" departLane="0" id="34" route="route0" type="Car" /><vehicle arrivalLane="1" color="green" depart="42.0800735602" departLane="1" id="35" route="route0" type="Car" /><vehicle arrivalLane="1" color="green" depart="43.1958683768" departLane="1" id="36" route="route0" type="Car" /><vehicle arrivalLane="0" color="green" depart="45.6138834893" departLane="0" id="37" route="route0" type="Car" /><vehicle arrivalLane="1" color="green" depart="45.6138834893" departLane="1" id="38" route="route0" type="Car" /><vehicle arrivalLane="0" color="green" depart="47.5868044266" departLane="0" id="39" route="route0" type="Car" /><vehicle arrivalLane="1" color="green" depart="47.5868044266" departLane="1" id="40" route="route0" type="Car" /><vehicle arrivalLane="0" color="green" depart="49.6458944903" departLane="0" id="41" route="route0" type="Car" /><vehicle arrivalLane="1" color="green" depart="49.6458944903" departLane="1" id="42" route="route0" type="Car" /><vehicle arrivalLane="0" color="green" depart="50.5042037507" departLane="0" id="43" route="route0" type="Car" /><vehicle arrivalLane="1" color="green" depart="50.5042037507" departLane="1" id="44" route="route0" type="Car" /><vehicle arrivalLane="0" color="green" depart="54.4530576903" departLane="0" id="45" route="route0" type="Car" /><vehicle arrivalLane="0" color="green" depart="54.4530576903" departLane="0" id="46" route="route0" type="Car" /><vehicle arrivalLane="1" color="green" depart="54.4530576903" departLane="1" id="47" route="route0" type="Car" /><vehicle arrivalLane="0" color="green" depart="57.8977996611" departLane="0" id="48" route="route0" type="Car" /><vehicle arrivalLane="0" color="green" depart="57.8977996611" departLane="0" id="49" route="route0" type="Car" /><vehicle arrivalLane="0" color="green" depart="57.8977996611" departLane="0" id="50" route="route0" type="Car" /><vehicle arrivalLane="0" color="green" depart="57.8977996611" departLane="0" id="51" route="route0" type="Car" /><vehicle arrivalLane="1" color="green" depart="57.8977996611" departLane="1" id="52" route="route0" type="Car" /><vehicle arrivalLane="1" color="green" depart="58.8169015353" departLane="1" id="53" route="route0" type="Car" /><vehicle arrivalLane="0" color="green" depart="61.6368924946" departLane="0" id="54" route="route0" type="Car" /><vehicle arrivalLane="0" color="green" depart="61.6368924946" departLane="0" id="55" route="route0" type="Car" /><vehicle arrivalLane="1" color="green" depart="61.6368924946" departLane="1" id="56" route="route0" type="Car" /><vehicle arrivalLane="1" color="green" depart="62.3393065919" departLane="1" id="57" route="route0" type="Car" /><vehicle arrivalLane="0" color="green" depart="62.5854770493" departLane="0" id="58" route="route0" type="Car" /><vehicle arrivalLane="1" color="green" depart="62.5854770493" departLane="1" id="59" route="route0" type="Car" /><vehicle arrivalLane="0" color="green" depart="63.5421616043" departLane="0" id="60" route="route0" type="Car" /><vehicle arrivalLane="1" color="green" depart="63.5421616043" departLane="1" id="61" route="route0" type="Car" /><vehicle arrivalLane="1" color="green" depart="63.5779551044" departLane="1" id="62" route="route0" type="Car" /><vehicle arrivalLane="0" color="green" depart="67.5248538821" departLane="0" id="63" route="route0" type="Car" /><vehicle arrivalLane="1" color="green" depart="67.5248538821" departLane="1" id="64" route="route0" type="Car" /><vehicle arrivalLane="0" color="green" depart="72.9158036513" departLane="0" id="65" route="route0" type="Car" /><vehicle arrivalLane="1" color="green" depart="72.9158036513" departLane="1" id="66" route="route0" type="Car" /><vehicle arrivalLane="0" color="green" depart="77.1525862452" departLane="0" id="67" route="route0" type="Car" /><vehicle arrivalLane="0" color="green" depart="77.1525862452" departLane="0" id="68" route="route0" type="Car" /><vehicle arrivalLane="0" color="green" depart="77.1525862452" departLane="0" id="69" route="route0" type="Car" /><vehicle arrivalLane="1" color="green" depart="77.1525862452" departLane="1" id="70" route="route0" type="Car" /><vehicle arrivalLane="0" color="green" depart="85.2193149608" departLane="0" id="71" route="route0" type="Car" /><vehicle arrivalLane="0" color="green" depart="85.2193149608" departLane="0" id="72" route="route0" type="Car" /><vehicle arrivalLane="0" color="green" depart="85.2193149608" departLane="0" id="73" route="route0" type="Car" /><vehicle arrivalLane="0" color="green" depart="85.2193149608" departLane="0" id="74" route="route0" type="Car" /><vehicle arrivalLane="1" color="green" depart="85.2193149608" departLane="1" id="75" route="route0" type="Car" /><vehicle arrivalLane="1" color="green" depart="86.1656109983" departLane="1" id="76" route="route0" type="Car" /><vehicle arrivalLane="1" color="green" depart="86.350807673" departLane="1" id="77" route="route0" type="Car" /><vehicle arrivalLane="0" color="green" depart="88.0487683764" departLane="0" id="78" route="route0" type="Car" /><vehicle arrivalLane="1" color="green" depart="88.0487683764" departLane="1" id="79" route="route0" type="Car" /><vehicle arrivalLane="0" color="green" depart="90.1517270299" departLane="0" id="80" route="route0" type="Car" /><vehicle arrivalLane="0" color="green" depart="90.1517270299" departLane="0" id="81" route="route0" type="Car" /><vehicle arrivalLane="1" color="green" depart="90.1517270299" departLane="1" id="82" route="route0" type="Car" /><vehicle arrivalLane="1" color="green" depart="91.2694534651" departLane="1" id="83" route="route0" type="Car" /><vehicle arrivalLane="0" color="green" depart="95.08164401" departLane="0" id="84" route="route0" type="Car" /><vehicle arrivalLane="0" color="green" depart="95.08164401" departLane="0" id="85" route="route0" type="Car" /><vehicle arrivalLane="0" color="green" depart="95.08164401" departLane="0" id="86" route="route0" type="Car" /><vehicle arrivalLane="1" color="green" depart="95.08164401" departLane="1" id="87" route="route0" type="Car" /><vehicle arrivalLane="1" color="green" depart="95.9290953444" departLane="1" id="88" route="route0" type="Car" /><vehicle arrivalLane="0" color="green" depart="99.6934552033" departLane="0" id="89" route="route0" type="Car" /><vehicle arrivalLane="1" color="green" depart="99.6934552033" departLane="1" id="90" route="route0" type="Car" /><vehicle arrivalLane="1" color="green" depart="100.761258023" departLane="1" id="91" route="route0" type="Car" /><vehicle arrivalLane="0" color="red" depart="115.739731349" departLane="0" id="vip" route="route0" type="CarVIP" /><vehicle arrivalLane="0" color="green" depart="115.739731349" departLane="0" id="93" route="route0" type="Car" /><vehicle arrivalLane="0" color="green" depart="115.739731349" departLane="0" id="94" route="route0" type="Car" /><vehicle arrivalLane="0" color="green" depart="115.739731349" departLane="0" id="95" route="route0" type="Car" /><vehicle arrivalLane="0" color="green" depart="115.739731349" departLane="0" id="96" route="route0" type="Car" /><vehicle arrivalLane="1" color="green" depart="115.739731349" departLane="1" id="97" route="route0" type="Car" /><vehicle arrivalLane="0" color="green" depart="125.638233511" departLane="0" id="98" route="route0" type="Car" /><vehicle arrivalLane="0" color="green" depart="125.638233511" departLane="0" id="99" route="route0" type="Car" /><vehicle arrivalLane="0" color="green" depart="125.638233511" departLane="0" id="100" route="route0" type="Car" /><vehicle arrivalLane="0" color="green" depart="125.638233511" departLane="0" id="101" route="route0" type="Car" /><vehicle arrivalLane="0" color="green" depart="125.638233511" departLane="0" id="102" route="route0" type="Car" /><vehicle arrivalLane="0" color="green" depart="125.638233511" departLane="0" id="103" route="route0" type="Car" /><vehicle arrivalLane="0" color="green" depart="125.638233511" departLane="0" id="104" route="route0" type="Car" /><vehicle arrivalLane="1" color="green" depart="125.638233511" departLane="1" id="105" route="route0" type="Car" /><vehicle arrivalLane="0" color="green" depart="128.63670619" departLane="0" id="106" route="route0" type="Car" /><vehicle arrivalLane="0" color="green" depart="128.63670619" departLane="0" id="107" route="route0" type="Car" /><vehicle arrivalLane="1" color="green" depart="128.63670619" departLane="1" id="108" route="route0" type="Car" /><vehicle arrivalLane="0" color="green" depart="131.787586966" departLane="0" id="109" route="route0" type="Car" /><vehicle arrivalLane="0" color="green" depart="131.787586966" departLane="0" id="110" route="route0" type="Car" /><vehicle arrivalLane="0" color="green" depart="131.787586966" departLane="0" id="111" route="route0" type="Car" /><vehicle arrivalLane="1" color="green" depart="131.787586966" departLane="1" id="112" route="route0" type="Car" /><vehicle arrivalLane="1" color="green" depart="131.908713837" departLane="1" id="113" route="route0" type="Car" /><vehicle arrivalLane="0" color="green" depart="132.414528342" departLane="0" id="114" route="route0" type="Car" /><vehicle arrivalLane="1" color="green" depart="132.414528342" departLane="1" id="115" route="route0" type="Car" /><vehicle arrivalLane="0" color="green" depart="132.770384537" departLane="0" id="116" route="route0" type="Car" /><vehicle arrivalLane="1" color="green" depart="132.770384537" departLane="1" id="117" route="route0" type="Car" /><vehicle arrivalLane="0" color="green" depart="135.344521602" departLane="0" id="118" route="route0" type="Car" /><vehicle arrivalLane="1" color="green" depart="135.344521602" departLane="1" id="119" route="route0" type="Car" /><vehicle arrivalLane="0" color="green" depart="140.681846555" departLane="0" id="120" route="route0" type="Car" /><vehicle arrivalLane="0" color="green" depart="140.681846555" departLane="0" id="121" route="route0" type="Car" /><vehicle arrivalLane="0" color="green" depart="140.681846555" departLane="0" id="122" route="route0" type="Car" /><vehicle arrivalLane="1" color="green" depart="140.681846555" departLane="1" id="123" route="route0" type="Car" /><vehicle arrivalLane="1" color="green" depart="143.620964877" departLane="1" id="124" route="route0" type="Car" /><vehicle arrivalLane="0" color="green" depart="148.375713726" departLane="0" id="125" route="route0" type="Car" /><vehicle arrivalLane="0" color="green" depart="148.375713726" departLane="0" id="126" route="route0" type="Car" /><vehicle arrivalLane="0" color="green" depart="148.375713726" departLane="0" id="127" route="route0" type="Car" /><vehicle arrivalLane="1" color="green" depart="148.375713726" departLane="1" id="128" route="route0" type="Car" /><vehicle arrivalLane="1" color="green" depart="150.326023152" departLane="1" id="129" route="route0" type="Car" /><vehicle arrivalLane="0" color="green" depart="151.522232107" departLane="0" id="130" route="route0" type="Car" /><vehicle arrivalLane="0" color="green" depart="151.522232107" departLane="0" id="131" route="route0" type="Car" /><vehicle arrivalLane="1" color="green" depart="151.522232107" departLane="1" id="132" route="route0" type="Car" /><vehicle arrivalLane="1" color="green" depart="152.20337067" departLane="1" id="133" route="route0" type="Car" /><vehicle arrivalLane="1" color="green" depart="152.901997921" departLane="1" id="134" route="route0" type="Car" /><vehicle arrivalLane="0" color="green" depart="157.959126366" departLane="0" id="135" route="route0" type="Car" /><vehicle arrivalLane="0" color="green" depart="157.959126366" departLane="0" id="136" route="route0" type="Car" /><vehicle arrivalLane="0" color="green" depart="157.959126366" departLane="0" id="137" route="route0" type="Car" /><vehicle arrivalLane="1" color="green" depart="157.959126366" departLane="1" id="138" route="route0" type="Car" /><vehicle arrivalLane="0" color="green" depart="161.03233625" departLane="0" id="139" route="route0" type="Car" /><vehicle arrivalLane="1" color="green" depart="161.03233625" departLane="1" id="140" route="route0" type="Car" /><vehicle arrivalLane="1" color="green" depart="161.105129338" departLane="1" id="141" route="route0" type="Car" /><vehicle arrivalLane="0" color="green" depart="162.128733187" departLane="0" id="142" route="route0" type="Car" /><vehicle arrivalLane="0" color="green" depart="162.128733187" departLane="0" id="143" route="route0" type="Car" /><vehicle arrivalLane="1" color="green" depart="162.128733187" departLane="1" id="144" route="route0" type="Car" /><vehicle arrivalLane="0" color="green" depart="167.112495243" departLane="0" id="145" route="route0" type="Car" /><vehicle arrivalLane="0" color="green" depart="167.112495243" departLane="0" id="146" route="route0" type="Car" /><vehicle arrivalLane="1" color="green" depart="167.112495243" departLane="1" id="147" route="route0" type="Car" /><vehicle arrivalLane="1" color="green" depart="168.489725005" departLane="1" id="148" route="route0" type="Car" /><vehicle arrivalLane="0" color="green" depart="171.500364465" departLane="0" id="149" route="route0" type="Car" /><vehicle arrivalLane="0" color="green" depart="171.500364465" departLane="0" id="150" route="route0" type="Car" /><vehicle arrivalLane="1" color="green" depart="171.500364465" departLane="1" id="151" route="route0" type="Car" /><vehicle arrivalLane="0" color="green" depart="173.277512602" departLane="0" id="152" route="route0" type="Car" /><vehicle arrivalLane="0" color="green" depart="173.277512602" departLane="0" id="153" route="route0" type="Car" /><vehicle arrivalLane="1" color="green" depart="173.277512602" departLane="1" id="154" route="route0" type="Car" /><vehicle arrivalLane="1" color="green" depart="173.947260357" departLane="1" id="155" route="route0" type="Car" /><vehicle arrivalLane="1" color="green" depart="174.376899055" departLane="1" id="156" route="route0" type="Car" /><vehicle arrivalLane="0" color="green" depart="175.532305131" departLane="0" id="157" route="route0" type="Car" /><vehicle arrivalLane="1" color="green" depart="175.532305131" departLane="1" id="158" route="route0" type="Car" /><vehicle arrivalLane="0" color="green" depart="176.313911349" departLane="0" id="159" route="route0" type="Car" /><vehicle arrivalLane="1" color="green" depart="176.313911349" departLane="1" id="160" route="route0" type="Car" /><vehicle arrivalLane="0" color="green" depart="177.615152622" departLane="0" id="161" route="route0" type="Car" /><vehicle arrivalLane="0" color="green" depart="177.615152622" departLane="0" id="162" route="route0" type="Car" /><vehicle arrivalLane="0" color="green" depart="177.615152622" departLane="0" id="163" route="route0" type="Car" /><vehicle arrivalLane="1" color="green" depart="177.615152622" departLane="1" id="164" route="route0" type="Car" /><vehicle arrivalLane="0" color="green" depart="179.308023465" departLane="0" id="165" route="route0" type="Car" /><vehicle arrivalLane="1" color="green" depart="179.308023465" departLane="1" id="166" route="route0" type="Car" /><vehicle arrivalLane="1" color="green" depart="180.350237123" departLane="1" id="167" route="route0" type="Car" /><vehicle arrivalLane="1" color="green" depart="181.144721946" departLane="1" id="168" route="route0" type="Car" /><vehicle arrivalLane="1" color="green" depart="181.424742868" departLane="1" id="169" route="route0" type="Car" /><vehicle arrivalLane="1" color="green" depart="181.535116783" departLane="1" id="170" route="route0" type="Car" /><vehicle arrivalLane="1" color="green" depart="182.217586879" departLane="1" id="171" route="route0" type="Car" /><vehicle arrivalLane="1" color="green" depart="182.894607674" departLane="1" id="172" route="route0" type="Car" /><vehicle arrivalLane="0" color="green" depart="183.551207672" departLane="0" id="173" route="route0" type="Car" /><vehicle arrivalLane="1" color="green" depart="183.551207672" departLane="1" id="174" route="route0" type="Car" /><vehicle arrivalLane="0" color="green" depart="184.675110372" departLane="0" id="175" route="route0" type="Car" /><vehicle arrivalLane="0" color="green" depart="184.675110372" departLane="0" id="176" route="route0" type="Car" /><vehicle arrivalLane="1" color="green" depart="184.675110372" departLane="1" id="177" route="route0" type="Car" /><vehicle arrivalLane="0" color="green" depart="188.18725631" departLane="0" id="178" route="route0" type="Car" /><vehicle arrivalLane="1" color="green" depart="188.18725631" departLane="1" id="179" route="route0" type="Car" /><vehicle arrivalLane="1" color="green" depart="190.174633944" departLane="1" id="180" route="route0" type="Car" /><vehicle arrivalLane="1" color="green" depart="193.196413138" departLane="1" id="181" route="route0" type="Car" /><vehicle arrivalLane="1" color="green" depart="199.653542622" departLane="1" id="182" route="route0" type="Car" /><vehicle arrivalLane="1" color="green" depart="200.525544353" departLane="1" id="183" route="route0" type="Car" /><vehicle arrivalLane="1" color="green" depart="201.305132292" departLane="1" id="184" route="route0" type="Car" /><vehicle arrivalLane="1" color="green" depart="203.104575867" departLane="1" id="185" route="route0" type="Car" /><vehicle arrivalLane="1" color="green" depart="203.389468686" departLane="1" id="186" route="route0" type="Car" /><vehicle arrivalLane="1" color="green" depart="207.026442968" departLane="1" id="187" route="route0" type="Car" /><vehicle arrivalLane="1" color="green" depart="213.041518291" departLane="1" id="188" route="route0" type="Car" /><vehicle arrivalLane="1" color="green" depart="213.299154054" departLane="1" id="189" route="route0" type="Car" /><vehicle arrivalLane="1" color="green" depart="213.811688335" departLane="1" id="190" route="route0" type="Car" /><vehicle arrivalLane="1" color="green" depart="215.625453786" departLane="1" id="191" route="route0" type="Car" /><vehicle arrivalLane="1" color="green" depart="216.01262608" departLane="1" id="192" route="route0" type="Car" /><vehicle arrivalLane="1" color="green" depart="217.807658008" departLane="1" id="193" route="route0" type="Car" /><vehicle arrivalLane="1" color="green" depart="219.587929425" departLane="1" id="194" route="route0" type="Car" /><vehicle arrivalLane="1" color="green" depart="220.666797122" departLane="1" id="195" route="route0" type="Car" /><vehicle arrivalLane="1" color="green" depart="220.824857771" departLane="1" id="196" route="route0" type="Car" /><vehicle arrivalLane="1" color="green" depart="222.90692155" departLane="1" id="197" route="route0" type="Car" /><vehicle arrivalLane="1" color="green" depart="224.166317263" departLane="1" id="198" route="route0" type="Car" /><vehicle arrivalLane="1" color="green" depart="230.453857225" departLane="1" id="199" route="route0" type="Car" /></routes>