<routes><vType accel="2.9" decel="7.5" id="Car" length="4.3" maxSpeed="27.78" minGap="-1" sigma="0.0" tau="0" /><vType accel="2.9" decel="7.5" id="CarVIP" length="6.5" maxSpeed="27.78" minGap="-1" sigma="0.0" tau="0" /><route edges="1to2" id="route0" /><vehicle arrivalLane="1" color="green" depart="1.2222542692" departLane="1" id="0" route="route0" type="Car" /><vehicle arrivalLane="0" color="green" depart="3.99809556394" departLane="0" id="1" route="route0" type="Car" /><vehicle arrivalLane="1" color="green" depart="3.99809556394" departLane="1" id="2" route="route0" type="Car" /><vehicle arrivalLane="1" color="green" depart="4.17254118713" departLane="1" id="3" route="route0" type="Car" /><vehicle arrivalLane="0" color="green" depart="5.22781646623" departLane="0" id="4" route="route0" type="Car" /><vehicle arrivalLane="1" color="green" depart="5.22781646623" departLane="1" id="5" route="route0" type="Car" /><vehicle arrivalLane="0" color="green" depart="8.45164107338" departLane="0" id="6" route="route0" type="Car" /><vehicle arrivalLane="0" color="green" depart="8.45164107338" departLane="0" id="7" route="route0" type="Car" /><vehicle arrivalLane="1" color="green" depart="8.45164107338" departLane="1" id="8" route="route0" type="Car" /><vehicle arrivalLane="1" color="green" depart="9.01664411938" departLane="1" id="9" route="route0" type="Car" /><vehicle arrivalLane="1" color="green" depart="9.61455231133" departLane="1" id="10" route="route0" type="Car" /><vehicle arrivalLane="0" color="green" depart="11.2909744226" departLane="0" id="11" route="route0" type="Car" /><vehicle arrivalLane="0" color="green" depart="11.2909744226" departLane="0" id="12" route="route0" type="Car" /><vehicle arrivalLane="1" color="green" depart="11.2909744226" departLane="1" id="13" route="route0" type="Car" /><vehicle arrivalLane="0" color="green" depart="15.0438171666" departLane="0" id="14" route="route0" type="Car" /><vehicle arrivalLane="0" color="green" depart="15.0438171666" departLane="0" id="15" route="route0" type="Car" /><vehicle arrivalLane="1" color="green" depart="15.0438171666" departLane="1" id="16" route="route0" type="Car" /><vehicle arrivalLane="0" color="green" depart="20.7932490751" departLane="0" id="17" route="route0" type="Car" /><vehicle arrivalLane="0" color="green" depart="20.7932490751" departLane="0" id="18" route="route0" type="Car" /><vehicle arrivalLane="0" color="green" depart="20.7932490751" departLane="0" id="19" route="route0" type="Car" /><vehicle arrivalLane="1" color="green" depart="20.7932490751" departLane="1" id="20" route="route0" type="Car" /><vehicle arrivalLane="0" color="green" depart="25.3149990234" departLane="0" id="21" route="route0" type="Car" /><vehicle arrivalLane="0" color="green" depart="25.3149990234" departLane="0" id="22" route="route0" type="Car" /><vehicle arrivalLane="0" color="green" depart="25.3149990234" departLane="0" id="23" route="route0" type="Car" /><vehicle arrivalLane="0" color="green" depart="25.3149990234" departLane="0" id="24" route="route0" type="Car" /><vehicle arrivalLane="0" color="green" depart="25.3149990234" departLane="0" id="25" route="route0" type="Car" /><vehicle arrivalLane="0" color="green" depart="25.3149990234" departLane="0" id="26" route="route0" type="Car" /><vehicle arrivalLane="1" color="green" depart="25.3149990234" departLane="1" id="27" route="route0" type="Car" /><vehicle arrivalLane="1" color="green" depart="25.4760509114" departLane="1" id="28" route="route0" type="Car" /><vehicle arrivalLane="0" color="green" depart="26.1536661745" departLane="0" id="29" route="route0" type="Car" /><vehicle arrivalLane="0" color="green" depart="26.1536661745" departLane="0" id="30" route="route0" type="Car" /><vehicle arrivalLane="1" color="green" depart="26.1536661745" departLane="1" id="31" route="route0" type="Car" /><vehicle arrivalLane="0" color="green" depart="31.1502959014" departLane="0" id="32" route="route0" type="Car" /><vehicle arrivalLane="0" color="green" depart="31.1502959014" departLane="0" id="33" route="route0" type="Car" /><vehicle arrivalLane="1" color="green" depart="31.1502959014" departLane="1" id="34" route="route0" type="Car" /><vehicle arrivalLane="0" color="green" depart="32.4010477882" departLane="0" id="35" route="route0" type="Car" /><vehicle arrivalLane="1" color="green" depart="32.4010477882" departLane="1" id="36" route="route0" type="Car" /><vehicle arrivalLane="1" color="green" depart="34.3545187718" departLane="1" id="37" route="route0" type="Car" /><vehicle arrivalLane="0" color="green" depart="35.4258794951" departLane="0" id="38" route="route0" type="Car" /><vehicle arrivalLane="0" color="green" depart="35.4258794951" departLane="0" id="39" route="route0" type="Car" /><vehicle arrivalLane="1" color="green" depart="35.4258794951" departLane="1" id="40" route="route0" type="Car" /><vehicle arrivalLane="1" color="green" depart="36.6615708967" departLane="1" id="41" route="route0" type="Car" /><vehicle arrivalLane="1" color="green" depart="39.4600600978" departLane="1" id="42" route="route0" type="Car" /><vehicle arrivalLane="0" color="green" depart="43.1529132173" departLane="0" id="43" route="route0" type="Car" /><vehicle arrivalLane="0" color="green" depart="43.1529132173" departLane="0" id="44" route="route0" type="Car" /><vehicle arrivalLane="0" color="green" depart="43.1529132173" departLane="0" id="45" route="route0" type="Car" /><vehicle arrivalLane="1" color="green" depart="43.1529132173" departLane="1" id="46" route="route0" type="Car" /><vehicle arrivalLane="0" color="green" depart="47.7111730666" departLane="0" id="47" route="route0" type="Car" /><vehicle arrivalLane="0" color="green" depart="47.7111730666" departLane="0" id="48" route="route0" type="Car" /><vehicle arrivalLane="0" color="green" depart="47.7111730666" departLane="0" id="49" route="route0" type="Car" /><vehicle arrivalLane="0" color="green" depart="47.7111730666" departLane="0" id="50" route="route0" type="Car" /><vehicle arrivalLane="1" color="green" depart="47.7111730666" departLane="1" id="51" route="route0" type="Car" /><vehicle arrivalLane="0" color="green" depart="53.5555025549" departLane="0" id="52" route="route0" type="Car" /><vehicle arrivalLane="0" color="green" depart="53.5555025549" departLane="0" id="53" route="route0" type="Car" /><vehicle arrivalLane="1" color="green" depart="53.5555025549" departLane="1" id="54" route="route0" type="Car" /><vehicle arrivalLane="0" color="green" depart="62.0364004066" departLane="0" id="55" route="route0" type="Car" /><vehicle arrivalLane="0" color="green" depart="62.0364004066" departLane="0" id="56" route="route0" type="Car" /><vehicle arrivalLane="1" color="green" depart="62.0364004066" departLane="1" id="57" route="route0" type="Car" /><vehicle arrivalLane="1" color="green" depart="62.5896689962" departLane="1" id="58" route="route0" type="Car" /><vehicle arrivalLane="1" color="green" depart="63.4143987441" departLane="1" id="59" route="route0" type="Car" /><vehicle arrivalLane="1" color="green" depart="66.561440568" departLane="1" id="60" route="route0" type="Car" /><vehicle arrivalLane="1" color="green" depart="68.5788355916" departLane="1" id="61" route="route0" type="Car" /><vehicle arrivalLane="1" color="green" depart="68.6992220297" departLane="1" id="62" route="route0" type="Car" /><vehicle arrivalLane="0" color="green" depart="75.0168949362" departLane="0" id="63" route="route0" type="Car" /><vehicle arrivalLane="0" color="green" depart="75.0168949362" departLane="0" id="64" route="route0" type="Car" /><vehicle arrivalLane="0" color="green" depart="75.0168949362" departLane="0" id="65" route="route0" type="Car" /><vehicle arrivalLane="0" color="green" depart="75.0168949362" departLane="0" id="66" route="route0" type="Car" /><vehicle arrivalLane="1" color="green" depart="75.0168949362" departLane="1" id="67" route="route0" type="Car" /><vehicle arrivalLane="0" color="green" depart="77.7822788245" departLane="0" id="68" route="route0" type="Car" /><vehicle arrivalLane="0" color="green" depart="77.7822788245" departLane="0" id="69" route="route0" type="Car" /><vehicle arrivalLane="0" color="green" depart="77.7822788245" departLane="0" id="70" route="route0" type="Car" /><vehicle arrivalLane="1" color="green" depart="77.7822788245" departLane="1" id="71" route="route0" type="Car" /><vehicle arrivalLane="0" color="green" depart="79.9756914321" departLane="0" id="72" route="route0" type="Car" /><vehicle arrivalLane="1" color="green" depart="79.9756914321" departLane="1" id="73" route="route0" type="Car" /><vehicle arrivalLane="1" color="green" depart="80.1772904042" departLane="1" id="74" route="route0" type="Car" /><vehicle arrivalLane="1" color="green" depart="80.3446442549" departLane="1" id="75" route="route0" type="Car" /><vehicle arrivalLane="0" color="green" depart="84.5227269189" departLane="0" id="76" route="route0" type="Car" /><vehicle arrivalLane="0" color="green" depart="84.5227269189" departLane="0" id="77" route="route0" type="Car" /><vehicle arrivalLane="0" color="green" depart="84.5227269189" departLane="0" id="78" route="route0" type="Car" /><vehicle arrivalLane="1" color="green" depart="84.5227269189" departLane="1" id="79" route="route0" type="Car" /><vehicle arrivalLane="1" color="green" depart="85.0728732171" departLane="1" id="80" route="route0" type="Car" /><vehicle arrivalLane="0" color="green" depart="86.1065249737" departLane="0" id="81" route="route0" type="Car" /><vehicle arrivalLane="1" color="green" depart="86.1065249737" departLane="1" id="82" route="route0" type="Car" /><vehicle arrivalLane="0" color="green" depart="87.6448973463" departLane="0" id="83" route="route0" type="Car" /><vehicle arrivalLane="1" color="green" depart="87.6448973463" departLane="1" id="84" route="route0" type="Car" /><vehicle arrivalLane="1" color="green" depart="88.9389159399" departLane="1" id="85" route="route0" type="Car" /><vehicle arrivalLane="0" color="green" depart="89.0825554368" departLane="0" id="86" route="route0" type="Car" /><vehicle arrivalLane="1" color="green" depart="89.0825554368" departLane="1" id="87" route="route0" type="Car" /><vehicle arrivalLane="0" color="green" depart="89.487362038" departLane="0" id="88" route="route0" type="Car" /><vehicle arrivalLane="1" color="green" depart="89.487362038" departLane="1" id="89" route="route0" type="Car" /><vehicle arrivalLane="0" color="red" depart="94.1167428346" departLane="0" id="vip" route="route0" type="CarVIP" /><vehicle arrivalLane="0" color="green" depart="94.1167428346" departLane="0" id="91" route="route0" type="Car" /><vehicle arrivalLane="1" color="green" depart="94.1167428346" departLane="1" id="92" route="route0" type="Car" /><vehicle arrivalLane="1" color="green" depart="94.1301471707" departLane="1" id="93" route="route0" type="Car" /><vehicle arrivalLane="1" color="green" depart="94.6551735017" departLane="1" id="94" route="route0" type="Car" /><vehicle arrivalLane="1" color="green" depart="97.9269888522" departLane="1" id="95" route="route0" type="Car" /><vehicle arrivalLane="0" color="green" depart="101.423580365" departLane="0" id="96" route="route0" type="Car" /><vehicle arrivalLane="1" color="green" depart="101.423580365" departLane="1" id="97" route="route0" type="Car" /><vehicle arrivalLane="0" color="green" depart="106.052310642" departLane="0" id="98" route="route0" type="Car" /><vehicle arrivalLane="1" color="green" depart="106.052310642" departLane="1" id="99" route="route0" type="Car" /><vehicle arrivalLane="0" color="green" depart="108.431573826" departLane="0" id="100" route="route0" type="Car" /><vehicle arrivalLane="0" color="green" depart="108.431573826" departLane="0" id="101" route="route0" type="Car" /><vehicle arrivalLane="1" color="green" depart="108.431573826" departLane="1" id="102" route="route0" type="Car" /><vehicle arrivalLane="0" color="green" depart="111.706975164" departLane="0" id="103" route="route0" type="Car" /><vehicle arrivalLane="1" color="green" depart="111.706975164" departLane="1" id="104" route="route0" type="Car" /><vehicle arrivalLane="0" color="green" depart="113.926456772" departLane="0" id="105" route="route0" type="Car" /><vehicle arrivalLane="0" color="green" depart="113.926456772" departLane="0" id="106" route="route0" type="Car" /><vehicle arrivalLane="1" color="green" depart="113.926456772" departLane="1" id="107" route="route0" type="Car" /><vehicle arrivalLane="0" color="green" depart="116.184393678" departLane="0" id="108" route="route0" type="Car" /><vehicle arrivalLane="1" color="green" depart="116.184393678" departLane="1" id="109" route="route0" type="Car" /><vehicle arrivalLane="0" color="green" depart="120.108374904" departLane="0" id="110" route="route0" type="Car" /><vehicle arrivalLane="1" color="green" depart="120.108374904" departLane="1" id="111" route="route0" type="Car" /><vehicle arrivalLane="0" color="green" depart="124.829003363" departLane="0" id="112" route="route0" type="Car" /><vehicle arrivalLane="0" color="green" depart="124.829003363" departLane="0" id="113" route="route0" type="Car" /><vehicle arrivalLane="0" color="green" depart="124.829003363" departLane="0" id="114" route="route0" type="Car" /><vehicle arrivalLane="1" color="green" depart="124.829003363" departLane="1" id="115" route="route0" type="Car" /><vehicle arrivalLane="1" color="green" depart="124.935503963" departLane="1" id="116" route="route0" type="Car" /><vehicle arrivalLane="1" color="green" depart="126.223415998" departLane="1" id="117" route="route0" type="Car" /><vehicle arrivalLane="1" color="green" depart="127.682155131" departLane="1" id="118" route="route0" type="Car" /><vehicle arrivalLane="1" color="green" depart="128.505200547" departLane="1" id="119" route="route0" type="Car" /><vehicle arrivalLane="1" color="green" depart="129.49166717" departLane="1" id="120" route="route0" type="Car" /><vehicle arrivalLane="0" color="green" depart="131.24507316" departLane="0" id="121" route="route0" type="Car" /><vehicle arrivalLane="0" color="green" depart="131.24507316" departLane="0" id="122" route="route0" type="Car" /><vehicle arrivalLane="1" color="green" depart="131.24507316" departLane="1" id="123" route="route0" type="Car" /><vehicle arrivalLane="0" color="green" depart="134.831014624" departLane="0" id="124" route="route0" type="Car" /><vehicle arrivalLane="1" color="green" depart="134.831014624" departLane="1" id="125" route="route0" type="Car" /><vehicle arrivalLane="0" color="green" depart="139.099620834" departLane="0" id="126" route="route0" type="Car" /><vehicle arrivalLane="0" color="green" depart="139.099620834" departLane="0" id="127" route="route0" type="Car" /><vehicle arrivalLane="1" color="green" depart="139.099620834" departLane="1" id="128" route="route0" type="Car" /><vehicle arrivalLane="0" color="green" depart="140.79358075" departLane="0" id="129" route="route0" type="Car" /><vehicle arrivalLane="1" color="green" depart="140.79358075" departLane="1" id="130" route="route0" type="Car" /><vehicle arrivalLane="0" color="green" depart="141.105980286" departLane="0" id="131" route="route0" type="Car" /><vehicle arrivalLane="1" color="green" depart="141.105980286" departLane="1" id="132" route="route0" type="Car" /><vehicle arrivalLane="1" color="green" depart="141.74397806" departLane="1" id="133" route="route0" type="Car" /><vehicle arrivalLane="1" color="green" depart="142.293294696" departLane="1" id="134" route="route0" type="Car" /><vehicle arrivalLane="0" color="green" depart="147.476534872" departLane="0" id="135" route="route0" type="Car" /><vehicle arrivalLane="0" color="green" depart="147.476534872" departLane="0" id="136" route="route0" type="Car" /><vehicle arrivalLane="1" color="green" depart="147.476534872" departLane="1" id="137" route="route0" type="Car" /><vehicle arrivalLane="0" color="green" depart="148.182357501" departLane="0" id="138" route="route0" type="Car" /><vehicle arrivalLane="1" color="green" depart="148.182357501" departLane="1" id="139" route="route0" type="Car" /><vehicle arrivalLane="1" color="green" depart="148.659631756" departLane="1" id="140" route="route0" type="Car" /><vehicle arrivalLane="0" color="green" depart="150.976034673" departLane="0" id="141" route="route0" type="Car" /><vehicle arrivalLane="1" color="green" depart="150.976034673" departLane="1" id="142" route="route0" type="Car" /><vehicle arrivalLane="1" color="green" depart="152.008784621" departLane="1" id="143" route="route0" type="Car" /><vehicle arrivalLane="1" color="green" depart="152.603536046" departLane="1" id="144" route="route0" type="Car" /><vehicle arrivalLane="0" color="green" depart="154.75828278" departLane="0" id="145" route="route0" type="Car" /><vehicle arrivalLane="1" color="green" depart="154.75828278" departLane="1" id="146" route="route0" type="Car" /><vehicle arrivalLane="1" color="green" depart="155.748586168" departLane="1" id="147" route="route0" type="Car" /><vehicle arrivalLane="0" color="green" depart="157.596857431" departLane="0" id="148" route="route0" type="Car" /><vehicle arrivalLane="0" color="green" depart="157.596857431" departLane="0" id="149" route="route0" type="Car" /><vehicle arrivalLane="1" color="green" depart="157.596857431" departLane="1" id="150" route="route0" type="Car" /><vehicle arrivalLane="1" color="green" depart="158.632404929" departLane="1" id="151" route="route0" type="Car" /><vehicle arrivalLane="1" color="green" depart="158.729020037" departLane="1" id="152" route="route0" type="Car" /><vehicle arrivalLane="1" color="green" depart="158.825574323" departLane="1" id="153" route="route0" type="Car" /><vehicle arrivalLane="1" color="green" depart="159.68323564" departLane="1" id="154" route="route0" type="Car" /><vehicle arrivalLane="0" color="green" depart="162.737524053" departLane="0" id="155" route="route0" type="Car" /><vehicle arrivalLane="0" color="green" depart="162.737524053" departLane="0" id="156" route="route0" type="Car" /><vehicle arrivalLane="1" color="green" depart="162.737524053" departLane="1" id="157" route="route0" type="Car" /><vehicle arrivalLane="1" color="green" depart="162.939627727" departLane="1" id="158" route="route0" type="Car" /><vehicle arrivalLane="1" color="green" depart="165.365151712" departLane="1" id="159" route="route0" type="Car" /><vehicle arrivalLane="0" color="green" depart="166.890466538" departLane="0" id="160" route="route0" type="Car" /><vehicle arrivalLane="1" color="green" depart="166.890466538" departLane="1" id="161" route="route0" type="Car" /><vehicle arrivalLane="0" color="green" depart="170.353623026" departLane="0" id="162" route="route0" type="Car" /><vehicle arrivalLane="0" color="green" depart="170.353623026" departLane="0" id="163" route="route0" type="Car" /><vehicle arrivalLane="1" color="green" depart="170.353623026" departLane="1" id="164" route="route0" type="Car" /><vehicle arrivalLane="0" color="green" depart="175.360649268" departLane="0" id="165" route="route0" type="Car" /><vehicle arrivalLane="0" color="green" depart="175.360649268" departLane="0" id="166" route="route0" type="Car" /><vehicle arrivalLane="0" color="green" depart="175.360649268" departLane="0" id="167" route="route0" type="Car" /><vehicle arrivalLane="0" color="green" depart="175.360649268" departLane="0" id="168" route="route0" type="Car" /><vehicle arrivalLane="1" color="green" depart="175.360649268" departLane="1" id="169" route="route0" type="Car" /><vehicle arrivalLane="0" color="green" depart="180.292821064" departLane="0" id="170" route="route0" type="Car" /><vehicle arrivalLane="0" color="green" depart="180.292821064" departLane="0" id="171" route="route0" type="Car" /><vehicle arrivalLane="0" color="green" depart="180.292821064" departLane="0" id="172" route="route0" type="Car" /><vehicle arrivalLane="1" color="green" depart="180.292821064" departLane="1" id="173" route="route0" type="Car" /><vehicle arrivalLane="0" color="green" depart="181.70938863" departLane="0" id="174" route="route0" type="Car" /><vehicle arrivalLane="1" color="green" depart="181.70938863" departLane="1" id="175" route="route0" type="Car" /><vehicle arrivalLane="1" color="green" depart="181.764912251" departLane="1" id="176" route="route0" type="Car" /><vehicle arrivalLane="0" color="green" depart="187.925369027" departLane="0" id="177" route="route0" type="Car" /><vehicle arrivalLane="0" color="green" depart="187.925369027" departLane="0" id="178" route="route0" type="Car" /><vehicle arrivalLane="0" color="green" depart="187.925369027" departLane="0" id="179" route="route0" type="Car" /><vehicle arrivalLane="0" color="green" depart="187.925369027" departLane="0" id="180" route="route0" type="Car" /><vehicle arrivalLane="0" color="green" depart="187.925369027" departLane="0" id="181" route="route0" type="Car" /><vehicle arrivalLane="0" color="green" depart="187.925369027" departLane="0" id="182" route="route0" type="Car" /><vehicle arrivalLane="1" color="green" depart="187.925369027" departLane="1" id="183" route="route0" type="Car" /><vehicle arrivalLane="0" color="green" depart="189.93416906" departLane="0" id="184" route="route0" type="Car" /><vehicle arrivalLane="0" color="green" depart="189.93416906" departLane="0" id="185" route="route0" type="Car" /><vehicle arrivalLane="1" color="green" depart="189.93416906" departLane="1" id="186" route="route0" type="Car" /><vehicle arrivalLane="1" color="green" depart="190.97925421" departLane="1" id="187" route="route0" type="Car" /><vehicle arrivalLane="1" color="green" depart="191.492344867" departLane="1" id="188" route="route0" type="Car" /><vehicle arrivalLane="0" color="green" depart="194.686932487" departLane="0" id="189" route="route0" type="Car" /><vehicle arrivalLane="1" color="green" depart="194.686932487" departLane="1" id="190" route="route0" type="Car" /><vehicle arrivalLane="1" color="green" depart="195.620755885" departLane="1" id="191" route="route0" type="Car" /><vehicle arrivalLane="1" color="green" depart="196.712371195" departLane="1" id="192" route="route0" type="Car" /><vehicle arrivalLane="1" color="green" depart="197.385004822" departLane="1" id="193" route="route0" type="Car" /><vehicle arrivalLane="1" color="green" depart="199.262220132" departLane="1" id="194" route="route0" type="Car" /><vehicle arrivalLane="1" color="green" depart="199.896178882" departLane="1" id="195" route="route0" type="Car" /><vehicle arrivalLane="1" color="green" depart="201.962247685" departLane="1" id="196" route="route0" type="Car" /><vehicle arrivalLane="1" color="green" depart="202.656626959" departLane="1" id="197" route="route0" type="Car" /><vehicle arrivalLane="1" color="green" depart="207.798065965" departLane="1" id="198" route="route0" type="Car" /><vehicle arrivalLane="1" color="green" depart="210.01278362" departLane="1" id="199" route="route0" type="Car" /></routes>