<routes><vType accel="2.9" decel="7.5" id="Car" length="4.3" maxSpeed="27.78" minGap="-1" sigma="0.0" tau="0" /><vType accel="2.9" decel="7.5" id="CarVIP" length="6.5" maxSpeed="27.78" minGap="-1" sigma="0.0" tau="0" /><route edges="1to2" id="route0" /><vehicle arrivalLane="0" color="green" depart="0.419206769013" departLane="0" id="0" route="route0" type="Car" /><vehicle arrivalLane="1" color="green" depart="0.419206769013" departLane="1" id="1" route="route0" type="Car" /><vehicle arrivalLane="1" color="green" depart="0.613876039961" departLane="1" id="2" route="route0" type="Car" /><vehicle arrivalLane="0" color="green" depart="4.7822911877" departLane="0" id="3" route="route0" type="Car" /><vehicle arrivalLane="0" color="green" depart="4.7822911877" departLane="0" id="4" route="route0" type="Car" /><vehicle arrivalLane="1" color="green" depart="4.7822911877" departLane="1" id="5" route="route0" type="Car" /><vehicle arrivalLane="0" color="green" depart="8.20223201388" departLane="0" id="6" route="route0" type="Car" /><vehicle arrivalLane="1" color="green" depart="8.20223201388" departLane="1" id="7" route="route0" type="Car" /><vehicle arrivalLane="0" color="green" depart="11.2554839136" departLane="0" id="8" route="route0" type="Car" /><vehicle arrivalLane="0" color="green" depart="11.2554839136" departLane="0" id="9" route="route0" type="Car" /><vehicle arrivalLane="1" color="green" depart="11.2554839136" departLane="1" id="10" route="route0" type="Car" /><vehicle arrivalLane="0" color="green" depart="13.9870415752" departLane="0" id="11" route="route0" type="Car" /><vehicle arrivalLane="0" color="green" depart="13.9870415752" departLane="0" id="12" route="route0" type="Car" /><vehicle arrivalLane="1" color="green" depart="13.9870415752" departLane="1" id="13" route="route0" type="Car" /><vehicle arrivalLane="1" color="green" depart="14.3198031832" departLane="1" id="14" route="route0" type="Car" /><vehicle arrivalLane="1" color="green" depart="14.8696645425" departLane="1" id="15" route="route0" type="Car" /><vehicle arrivalLane="0" color="green" depart="15.2307844324" departLane="0" id="16" route="route0" type="Car" /><vehicle arrivalLane="1" color="green" depart="15.2307844324" departLane="1" id="17" route="route0" type="Car" /><vehicle arrivalLane="0" color="green" depart="19.4980951452" departLane="0" id="18" route="route0" type="Car" /><vehicle arrivalLane="0" color="green" depart="19.4980951452" departLane="0" id="19" route="route0" type="Car" /><vehicle arrivalLane="0" color="green" depart="19.4980951452" departLane="0" id="20" route="route0" type="Car" /><vehicle arrivalLane="0" color="green" depart="19.4980951452" departLane="0" id="21" route="route0" type="Car" /><vehicle arrivalLane="1" color="green" depart="19.4980951452" departLane="1" id="22" route="route0" type="Car" /><vehicle arrivalLane="1" color="green" depart="21.0777542519" departLane="1" id="23" route="route0" type="Car" /><vehicle arrivalLane="0" color="green" depart="25.4769812027" departLane="0" id="24" route="route0" type="Car" /><vehicle arrivalLane="1" color="green" depart="25.4769812027" departLane="1" id="25" route="route0" type="Car" /><vehicle arrivalLane="1" color="green" depart="27.0730120372" departLane="1" id="26" route="route0" type="Car" /><vehicle arrivalLane="0" color="green" depart="33.9205963751" departLane="0" id="27" route="route0" type="Car" /><vehicle arrivalLane="0" color="green" depart="33.9205963751" departLane="0" id="28" route="route0" type="Car" /><vehicle arrivalLane="0" color="green" depart="33.9205963751" departLane="0" id="29" route="route0" type="Car" /><vehicle arrivalLane="0" color="green" depart="33.9205963751" departLane="0" id="30" route="route0" type="Car" /><vehicle arrivalLane="1" color="green" depart="33.9205963751" departLane="1" id="31" route="route0" type="Car" /><vehicle arrivalLane="1" color="green" depart="33.9863811375" departLane="1" id="32" route="route0" type="Car" /><vehicle arrivalLane="1" color="green" depart="34.4177767191" departLane="1" id="33" route="route0" type="Car" /><vehicle arrivalLane="0" color="green" depart="38.6486478282" departLane="0" id="34" route="route0" type="Car" /><vehicle arrivalLane="0" color="green" depart="38.6486478282" departLane="0" id="35" route="route0" type="Car" /><vehicle arrivalLane="1" color="green" depart="38.6486478282" departLane="1" id="36" route="route0" type="Car" /><vehicle arrivalLane="0" color="green" depart="48.5200491047" departLane="0" id="37" route="route0" type="Car" /><vehicle arrivalLane="0" color="green" depart="48.5200491047" departLane="0" id="38" route="route0" type="Car" /><vehicle arrivalLane="0" color="green" depart="48.5200491047" departLane="0" id="39" route="route0" type="Car" /><vehicle arrivalLane="0" color="green" depart="48.5200491047" departLane="0" id="40" route="route0" type="Car" /><vehicle arrivalLane="0" color="green" depart="48.5200491047" departLane="0" id="41" route="route0" type="Car" /><vehicle arrivalLane="0" color="green" depart="48.5200491047" departLane="0" id="42" route="route0" type="Car" /><vehicle arrivalLane="0" color="green" depart="48.5200491047" departLane="0" id="43" route="route0" type="Car" /><vehicle arrivalLane="0" color="green" depart="48.5200491047" departLane="0" id="44" route="route0" type="Car" /><vehicle arrivalLane="0" color="green" depart="48.5200491047" departLane="0" id="45" route="route0" type="Car" /><vehicle arrivalLane="1" color="green" depart="48.5200491047" departLane="1" id="46" route="route0" type="Car" /><vehicle arrivalLane="1" color="green" depart="49.2350363234" departLane="1" id="47" route="route0" type="Car" /><vehicle arrivalLane="0" color="green" depart="53.7353693731" departLane="0" id="48" route="route0" type="Car" /><vehicle arrivalLane="0" color="green" depart="53.7353693731" departLane="0" id="49" route="route0" type="Car" /><vehicle arrivalLane="1" color="green" depart="53.7353693731" departLane="1" id="50" route="route0" type="Car" /><vehicle arrivalLane="0" color="green" depart="61.5044512423" departLane="0" id="51" route="route0" type="Car" /><vehicle arrivalLane="0" color="green" depart="61.5044512423" departLane="0" id="52" route="route0" type="Car" /><vehicle arrivalLane="0" color="green" depart="61.5044512423" departLane="0" id="53" route="route0" type="Car" /><vehicle arrivalLane="0" color="green" depart="61.5044512423" departLane="0" id="54" route="route0" type="Car" /><vehicle arrivalLane="1" color="green" depart="61.5044512423" departLane="1" id="55" route="route0" type="Car" /><vehicle arrivalLane="0" color="green" depart="64.2194664238" departLane="0" id="56" route="route0" type="Car" /><vehicle arrivalLane="0" color="green" depart="64.2194664238" departLane="0" id="57" route="route0" type="Car" /><vehicle arrivalLane="1" color="green" depart="64.2194664238" departLane="1" id="58" route="route0" type="Car" /><vehicle arrivalLane="0" color="green" depart="64.6228586724" departLane="0" id="59" route="route0" type="Car" /><vehicle arrivalLane="1" color="green" depart="64.6228586724" departLane="1" id="60" route="route0" type="Car" /><vehicle arrivalLane="0" color="green" depart="65.8883761818" departLane="0" id="61" route="route0" type="Car" /><vehicle arrivalLane="1" color="green" depart="65.8883761818" departLane="1" id="62" route="route0" type="Car" /><vehicle arrivalLane="0" color="green" depart="72.3288991751" departLane="0" id="63" route="route0" type="Car" /><vehicle arrivalLane="0" color="green" depart="72.3288991751" departLane="0" id="64" route="route0" type="Car" /><vehicle arrivalLane="0" color="green" depart="72.3288991751" departLane="0" id="65" route="route0" type="Car" /><vehicle arrivalLane="0" color="green" depart="72.3288991751" departLane="0" id="66" route="route0" type="Car" /><vehicle arrivalLane="0" color="green" depart="72.3288991751" departLane="0" id="67" route="route0" type="Car" /><vehicle arrivalLane="0" color="green" depart="72.3288991751" departLane="0" id="68" route="route0" type="Car" /><vehicle arrivalLane="1" color="green" depart="72.3288991751" departLane="1" id="69" route="route0" type="Car" /><vehicle arrivalLane="0" color="green" depart="75.0739049945" departLane="0" id="70" route="route0" type="Car" /><vehicle arrivalLane="0" color="green" depart="75.0739049945" departLane="0" id="71" route="route0" type="Car" /><vehicle arrivalLane="0" color="green" depart="75.0739049945" departLane="0" id="72" route="route0" type="Car" /><vehicle arrivalLane="1" color="green" depart="75.0739049945" departLane="1" id="73" route="route0" type="Car" /><vehicle arrivalLane="1" color="green" depart="75.6686294093" departLane="1" id="74" route="route0" type="Car" /><vehicle arrivalLane="0" color="green" depart="77.1164949554" departLane="0" id="75" route="route0" type="Car" /><vehicle arrivalLane="1" color="green" depart="77.1164949554" departLane="1" id="76" route="route0" type="Car" /><vehicle arrivalLane="1" color="green" depart="78.4245068232" departLane="1" id="77" route="route0" type="Car" /><vehicle arrivalLane="1" color="green" depart="78.4373020049" departLane="1" id="78" route="route0" type="Car" /><vehicle arrivalLane="0" color="green" depart="80.6403788618" departLane="0" id="79" route="route0" type="Car" /><vehicle arrivalLane="1" color="green" depart="80.6403788618" departLane="1" id="80" route="route0" type="Car" /><vehicle arrivalLane="1" color="green" depart="81.2471466434" departLane="1" id="81" route="route0" type="Car" /><vehicle arrivalLane="1" color="green" depart="83.9931715934" departLane="1" id="82" route="route0" type="Car" /><vehicle arrivalLane="0" color="red" depart="85.1129860207" departLane="0" id="vip" route="route0" type="CarVIP" /><vehicle arrivalLane="0" color="green" depart="85.1129860207" departLane="0" id="84" route="route0" type="Car" /><vehicle arrivalLane="1" color="green" depart="85.1129860207" departLane="1" id="85" route="route0" type="Car" /><vehicle arrivalLane="1" color="green" depart="85.1763126488" departLane="1" id="86" route="route0" type="Car" /><vehicle arrivalLane="0" color="green" depart="86.259291617" departLane="0" id="87" route="route0" type="Car" /><vehicle arrivalLane="0" color="green" depart="86.259291617" departLane="0" id="88" route="route0" type="Car" /><vehicle arrivalLane="0" color="green" depart="86.259291617" departLane="0" id="89" route="route0" type="Car" /><vehicle arrivalLane="1" color="green" depart="86.259291617" departLane="1" id="90" route="route0" type="Car" /><vehicle arrivalLane="0" color="green" depart="92.5669055366" departLane="0" id="91" route="route0" type="Car" /><vehicle arrivalLane="0" color="green" depart="92.5669055366" departLane="0" id="92" route="route0" type="Car" /><vehicle arrivalLane="0" color="green" depart="92.5669055366" departLane="0" id="93" route="route0" type="Car" /><vehicle arrivalLane="1" color="green" depart="92.5669055366" departLane="1" id="94" route="route0" type="Car" /><vehicle arrivalLane="0" color="green" depart="96.5001826578" departLane="0" id="95" route="route0" type="Car" /><vehicle arrivalLane="0" color="green" depart="96.5001826578" departLane="0" id="96" route="route0" type="Car" /><vehicle arrivalLane="0" color="green" depart="96.5001826578" departLane="0" id="97" route="route0" type="Car" /><vehicle arrivalLane="1" color="green" depart="96.5001826578" departLane="1" id="98" route="route0" type="Car" /><vehicle arrivalLane="0" color="green" depart="98.9776487765" departLane="0" id="99" route="route0" type="Car" /><vehicle arrivalLane="1" color="green" depart="98.9776487765" departLane="1" id="100" route="route0" type="Car" /><vehicle arrivalLane="1" color="green" depart="99.7565173701" departLane="1" id="101" route="route0" type="Car" /><vehicle arrivalLane="0" color="green" depart="101.512106411" departLane="0" id="102" route="route0" type="Car" /><vehicle arrivalLane="0" color="green" depart="101.512106411" departLane="0" id="103" route="route0" type="Car" /><vehicle arrivalLane="1" color="green" depart="101.512106411" departLane="1" id="104" route="route0" type="Car" /><vehicle arrivalLane="0" color="green" depart="105.296624344" departLane="0" id="105" route="route0" type="Car" /><vehicle arrivalLane="1" color="green" depart="105.296624344" departLane="1" id="106" route="route0" type="Car" /><vehicle arrivalLane="0" color="green" depart="110.444522517" departLane="0" id="107" route="route0" type="Car" /><vehicle arrivalLane="0" color="green" depart="110.444522517" departLane="0" id="108" route="route0" type="Car" /><vehicle arrivalLane="0" color="green" depart="110.444522517" departLane="0" id="109" route="route0" type="Car" /><vehicle arrivalLane="1" color="green" depart="110.444522517" departLane="1" id="110" route="route0" type="Car" /><vehicle arrivalLane="1" color="green" depart="112.862208368" departLane="1" id="111" route="route0" type="Car" /><vehicle arrivalLane="0" color="green" depart="114.350765186" departLane="0" id="112" route="route0" type="Car" /><vehicle arrivalLane="1" color="green" depart="114.350765186" departLane="1" id="113" route="route0" type="Car" /><vehicle arrivalLane="0" color="green" depart="117.537185763" departLane="0" id="114" route="route0" type="Car" /><vehicle arrivalLane="1" color="green" depart="117.537185763" departLane="1" id="115" route="route0" type="Car" /><vehicle arrivalLane="1" color="green" depart="118.216548666" departLane="1" id="116" route="route0" type="Car" /><vehicle arrivalLane="0" color="green" depart="120.719877524" departLane="0" id="117" route="route0" type="Car" /><vehicle arrivalLane="1" color="green" depart="120.719877524" departLane="1" id="118" route="route0" type="Car" /><vehicle arrivalLane="0" color="green" depart="125.537101665" departLane="0" id="119" route="route0" type="Car" /><vehicle arrivalLane="0" color="green" depart="125.537101665" departLane="0" id="120" route="route0" type="Car" /><vehicle arrivalLane="0" color="green" depart="125.537101665" departLane="0" id="121" route="route0" type="Car" /><vehicle arrivalLane="1" color="green" depart="125.537101665" departLane="1" id="122" route="route0" type="Car" /><vehicle arrivalLane="0" color="green" depart="127.913439721" departLane="0" id="123" route="route0" type="Car" /><vehicle arrivalLane="1" color="green" depart="127.913439721" departLane="1" id="124" route="route0" type="Car" /><vehicle arrivalLane="0" color="green" depart="129.671698638" departLane="0" id="125" route="route0" type="Car" /><vehicle arrivalLane="0" color="green" depart="129.671698638" departLane="0" id="126" route="route0" type="Car" /><vehicle arrivalLane="0" color="green" depart="129.671698638" departLane="0" id="127" route="route0" type="Car" /><vehicle arrivalLane="1" color="green" depart="129.671698638" departLane="1" id="128" route="route0" type="Car" /><vehicle arrivalLane="0" color="green" depart="132.25367656" departLane="0" id="129" route="route0" type="Car" /><vehicle arrivalLane="0" color="green" depart="132.25367656" departLane="0" id="130" route="route0" type="Car" /><vehicle arrivalLane="0" color="green" depart="132.25367656" departLane="0" id="131" route="route0" type="Car" /><vehicle arrivalLane="1" color="green" depart="132.25367656" departLane="1" id="132" route="route0" type="Car" /><vehicle arrivalLane="0" color="green" depart="133.602279803" departLane="0" id="133" route="route0" type="Car" /><vehicle arrivalLane="0" color="green" depart="133.602279803" departLane="0" id="134" route="route0" type="Car" /><vehicle arrivalLane="1" color="green" depart="133.602279803" departLane="1" id="135" route="route0" type="Car" /><vehicle arrivalLane="0" color="green" depart="138.805414649" departLane="0" id="136" route="route0" type="Car" /><vehicle arrivalLane="1" color="green" depart="138.805414649" departLane="1" id="137" route="route0" type="Car" /><vehicle arrivalLane="1" color="green" depart="139.222423227" departLane="1" id="138" route="route0" type="Car" /><vehicle arrivalLane="1" color="green" depart="139.920539001" departLane="1" id="139" route="route0" type="Car" /><vehicle arrivalLane="0" color="green" depart="141.912636741" departLane="0" id="140" route="route0" type="Car" /><vehicle arrivalLane="1" color="green" depart="141.912636741" departLane="1" id="141" route="route0" type="Car" /><vehicle arrivalLane="1" color="green" depart="142.649648528" departLane="1" id="142" route="route0" type="Car" /><vehicle arrivalLane="1" color="green" depart="144.560762545" departLane="1" id="143" route="route0" type="Car" /><vehicle arrivalLane="1" color="green" depart="145.523787181" departLane="1" id="144" route="route0" type="Car" /><vehicle arrivalLane="0" color="green" depart="147.291627569" departLane="0" id="145" route="route0" type="Car" /><vehicle arrivalLane="1" color="green" depart="147.291627569" departLane="1" id="146" route="route0" type="Car" /><vehicle arrivalLane="1" color="green" depart="147.396154168" departLane="1" id="147" route="route0" type="Car" /><vehicle arrivalLane="0" color="green" depart="148.133234528" departLane="0" id="148" route="route0" type="Car" /><vehicle arrivalLane="1" color="green" depart="148.133234528" departLane="1" id="149" route="route0" type="Car" /><vehicle arrivalLane="0" color="green" depart="160.92851747" departLane="0" id="150" route="route0" type="Car" /><vehicle arrivalLane="0" color="green" depart="160.92851747" departLane="0" id="151" route="route0" type="Car" /><vehicle arrivalLane="0" color="green" depart="160.92851747" departLane="0" id="152" route="route0" type="Car" /><vehicle arrivalLane="0" color="green" depart="160.92851747" departLane="0" id="153" route="route0" type="Car" /><vehicle arrivalLane="0" color="green" depart="160.92851747" departLane="0" id="154" route="route0" type="Car" /><vehicle arrivalLane="0" color="green" depart="160.92851747" departLane="0" id="155" route="route0" type="Car" /><vehicle arrivalLane="0" color="green" depart="160.92851747" departLane="0" id="156" route="route0" type="Car" /><vehicle arrivalLane="0" color="green" depart="160.92851747" departLane="0" id="157" route="route0" type="Car" /><vehicle arrivalLane="0" color="green" depart="160.92851747" departLane="0" id="158" route="route0" type="Car" /><vehicle arrivalLane="0" color="green" depart="160.92851747" departLane="0" id="159" route="route0" type="Car" /><vehicle arrivalLane="0" color="green" depart="160.92851747" departLane="0" id="160" route="route0" type="Car" /><vehicle arrivalLane="1" color="green" depart="160.92851747" departLane="1" id="161" route="route0" type="Car" /><vehicle arrivalLane="1" color="green" depart="161.148895626" departLane="1" id="162" route="route0" type="Car" /><vehicle arrivalLane="1" color="green" depart="162.900352219" departLane="1" id="163" route="route0" type="Car" /><vehicle arrivalLane="1" color="green" depart="166.398748795" departLane="1" id="164" route="route0" type="Car" /><vehicle arrivalLane="1" color="green" depart="167.703186103" departLane="1" id="165" route="route0" type="Car" /><vehicle arrivalLane="1" color="green" depart="168.850777892" departLane="1" id="166" route="route0" type="Car" /><vehicle arrivalLane="1" color="green" depart="169.972148074" departLane="1" id="167" route="route0" type="Car" /><vehicle arrivalLane="0" color="green" depart="170.532736689" departLane="0" id="168" route="route0" type="Car" /><vehicle arrivalLane="1" color="green" depart="170.532736689" departLane="1" id="169" route="route0" type="Car" /><vehicle arrivalLane="0" color="green" depart="172.857944012" departLane="0" id="170" route="route0" type="Car" /><vehicle arrivalLane="1" color="green" depart="172.857944012" departLane="1" id="171" route="route0" type="Car" /><vehicle arrivalLane="1" color="green" depart="173.055199665" departLane="1" id="172" route="route0" type="Car" /><vehicle arrivalLane="1" color="green" depart="173.242197388" departLane="1" id="173" route="route0" type="Car" /><vehicle arrivalLane="1" color="green" depart="178.835061994" departLane="1" id="174" route="route0" type="Car" /><vehicle arrivalLane="1" color="green" depart="180.19770942" departLane="1" id="175" route="route0" type="Car" /><vehicle arrivalLane="1" color="green" depart="186.111147297" departLane="1" id="176" route="route0" type="Car" /><vehicle arrivalLane="1" color="green" depart="186.806067028" departLane="1" id="177" route="route0" type="Car" /><vehicle arrivalLane="1" color="green" depart="186.886581883" departLane="1" id="178" route="route0" type="Car" /><vehicle arrivalLane="1" color="green" depart="188.839624429" departLane="1" id="179" route="route0" type="Car" /><vehicle arrivalLane="1" color="green" depart="189.009557162" departLane="1" id="180" route="route0" type="Car" /><vehicle arrivalLane="1" color="green" depart="189.31395654" departLane="1" id="181" route="route0" type="Car" /><vehicle arrivalLane="1" color="green" depart="192.194222228" departLane="1" id="182" route="route0" type="Car" /><vehicle arrivalLane="1" color="green" depart="192.535349181" departLane="1" id="183" route="route0" type="Car" /><vehicle arrivalLane="1" color="green" depart="192.839177827" departLane="1" id="184" route="route0" type="Car" /><vehicle arrivalLane="1" color="green" depart="192.884671939" departLane="1" id="185" route="route0" type="Car" /><vehicle arrivalLane="1" color="green" depart="193.246468403" departLane="1" id="186" route="route0" type="Car" /><vehicle arrivalLane="1" color="green" depart="193.721095845" departLane="1" id="187" route="route0" type="Car" /><vehicle arrivalLane="1" color="green" depart="195.086258207" departLane="1" id="188" route="route0" type="Car" /><vehicle arrivalLane="1" color="green" depart="195.499614012" departLane="1" id="189" route="route0" type="Car" /><vehicle arrivalLane="1" color="green" depart="195.554247413" departLane="1" id="190" route="route0" type="Car" /><vehicle arrivalLane="1" color="green" depart="200.114678088" departLane="1" id="191" route="route0" type="Car" /><vehicle arrivalLane="1" color="green" depart="203.033354011" departLane="1" id="192" route="route0" type="Car" /><vehicle arrivalLane="1" color="green" depart="205.090577547" departLane="1" id="193" route="route0" type="Car" /><vehicle arrivalLane="1" color="green" depart="205.979032075" departLane="1" id="194" route="route0" type="Car" /><vehicle arrivalLane="1" color="green" depart="209.956012588" departLane="1" id="195" route="route0" type="Car" /><vehicle arrivalLane="1" color="green" depart="210.373780392" departLane="1" id="196" route="route0" type="Car" /><vehicle arrivalLane="1" color="green" depart="210.640181733" departLane="1" id="197" route="route0" type="Car" /><vehicle arrivalLane="1" color="green" depart="216.303905534" departLane="1" id="198" route="route0" type="Car" /><vehicle arrivalLane="1" color="green" depart="216.573587396" departLane="1" id="199" route="route0" type="Car" /></routes>