<routes><vType accel="2.9" decel="7.5" id="Car" length="4.3" maxSpeed="27.78" minGap="-1" sigma="0.0" tau="0" /><vType accel="2.9" decel="7.5" id="CarVIP" length="6.5" maxSpeed="27.78" minGap="-1" sigma="0.0" tau="0" /><route edges="1to2" id="route0" /><vehicle arrivalLane="1" color="green" depart="2.17497387176" departLane="1" id="0" route="route0" type="Car" /><vehicle arrivalLane="1" color="green" depart="2.56753005002" departLane="1" id="1" route="route0" type="Car" /><vehicle arrivalLane="1" color="green" depart="3.07625752003" departLane="1" id="2" route="route0" type="Car" /><vehicle arrivalLane="1" color="green" depart="4.34286429889" departLane="1" id="3" route="route0" type="Car" /><vehicle arrivalLane="1" color="green" depart="5.71946928004" departLane="1" id="4" route="route0" type="Car" /><vehicle arrivalLane="1" color="green" depart="5.97471407311" departLane="1" id="5" route="route0" type="Car" /><vehicle arrivalLane="1" color="green" depart="6.03332986276" departLane="1" id="6" route="route0" type="Car" /><vehicle arrivalLane="0" color="green" depart="7.42575405378" departLane="0" id="7" route="route0" type="Car" /><vehicle arrivalLane="0" color="green" depart="7.42575405378" departLane="0" id="8" route="route0" type="Car" /><vehicle arrivalLane="1" color="green" depart="7.42575405378" departLane="1" id="9" route="route0" type="Car" /><vehicle arrivalLane="0" color="green" depart="7.49879406427" departLane="0" id="10" route="route0" type="Car" /><vehicle arrivalLane="1" color="green" depart="7.49879406427" departLane="1" id="11" route="route0" type="Car" /><vehicle arrivalLane="1" color="green" depart="9.71582378753" departLane="1" id="12" route="route0" type="Car" /><vehicle arrivalLane="1" color="green" depart="10.1968787596" departLane="1" id="13" route="route0" type="Car" /><vehicle arrivalLane="0" color="green" depart="11.8792241188" departLane="0" id="14" route="route0" type="Car" /><vehicle arrivalLane="1" color="green" depart="11.8792241188" departLane="1" id="15" route="route0" type="Car" /><vehicle arrivalLane="1" color="green" depart="11.9108150952" departLane="1" id="16" route="route0" type="Car" /><vehicle arrivalLane="0" color="green" depart="15.0517345409" departLane="0" id="17" route="route0" type="Car" /><vehicle arrivalLane="1" color="green" depart="15.0517345409" departLane="1" id="18" route="route0" type="Car" /><vehicle arrivalLane="0" color="green" depart="15.4802706259" departLane="0" id="19" route="route0" type="Car" /><vehicle arrivalLane="1" color="green" depart="15.4802706259" departLane="1" id="20" route="route0" type="Car" /><vehicle arrivalLane="0" color="green" depart="16.8084483548" departLane="0" id="21" route="route0" type="Car" /><vehicle arrivalLane="0" color="green" depart="16.8084483548" departLane="0" id="22" route="route0" type="Car" /><vehicle arrivalLane="1" color="green" depart="16.8084483548" departLane="1" id="23" route="route0" type="Car" /><vehicle arrivalLane="0" color="green" depart="18.9317408942" departLane="0" id="24" route="route0" type="Car" /><vehicle arrivalLane="1" color="green" depart="18.9317408942" departLane="1" id="25" route="route0" type="Car" /><vehicle arrivalLane="0" color="green" depart="20.7607821878" departLane="0" id="26" route="route0" type="Car" /><vehicle arrivalLane="0" color="green" depart="20.7607821878" departLane="0" id="27" route="route0" type="Car" /><vehicle arrivalLane="1" color="green" depart="20.7607821878" departLane="1" id="28" route="route0" type="Car" /><vehicle arrivalLane="1" color="green" depart="21.1962760773" departLane="1" id="29" route="route0" type="Car" /><vehicle arrivalLane="0" color="green" depart="23.0026927335" departLane="0" id="30" route="route0" type="Car" /><vehicle arrivalLane="0" color="green" depart="23.0026927335" departLane="0" id="31" route="route0" type="Car" /><vehicle arrivalLane="1" color="green" depart="23.0026927335" departLane="1" id="32" route="route0" type="Car" /><vehicle arrivalLane="0" color="green" depart="26.3242158998" departLane="0" id="33" route="route0" type="Car" /><vehicle arrivalLane="0" color="green" depart="26.3242158998" departLane="0" id="34" route="route0" type="Car" /><vehicle arrivalLane="1" color="green" depart="26.3242158998" departLane="1" id="35" route="route0" type="Car" /><vehicle arrivalLane="0" color="green" depart="28.0966661749" departLane="0" id="36" route="route0" type="Car" /><vehicle arrivalLane="1" color="green" depart="28.0966661749" departLane="1" id="37" route="route0" type="Car" /><vehicle arrivalLane="0" color="green" depart="35.8461983417" departLane="0" id="38" route="route0" type="Car" /><vehicle arrivalLane="0" color="green" depart="35.8461983417" departLane="0" id="39" route="route0" type="Car" /><vehicle arrivalLane="1" color="green" depart="35.8461983417" departLane="1" id="40" route="route0" type="Car" /><vehicle arrivalLane="0" color="green" depart="43.4474528499" departLane="0" id="41" route="route0" type="Car" /><vehicle arrivalLane="0" color="green" depart="43.4474528499" departLane="0" id="42" route="route0" type="Car" /><vehicle arrivalLane="1" color="green" depart="43.4474528499" departLane="1" id="43" route="route0" type="Car" /><vehicle arrivalLane="0" color="green" depart="44.8753334194" departLane="0" id="44" route="route0" type="Car" /><vehicle arrivalLane="1" color="green" depart="44.8753334194" departLane="1" id="45" route="route0" type="Car" /><vehicle arrivalLane="0" color="green" depart="51.5960539447" departLane="0" id="46" route="route0" type="Car" /><vehicle arrivalLane="0" color="green" depart="51.5960539447" departLane="0" id="47" route="route0" type="Car" /><vehicle arrivalLane="0" color="green" depart="51.5960539447" departLane="0" id="48" route="route0" type="Car" /><vehicle arrivalLane="0" color="green" depart="51.5960539447" departLane="0" id="49" route="route0" type="Car" /><vehicle arrivalLane="0" color="green" depart="51.5960539447" departLane="0" id="50" route="route0" type="Car" /><vehicle arrivalLane="0" color="green" depart="51.5960539447" departLane="0" id="51" route="route0" type="Car" /><vehicle arrivalLane="0" color="green" depart="51.5960539447" departLane="0" id="52" route="route0" type="Car" /><vehicle arrivalLane="1" color="green" depart="51.5960539447" departLane="1" id="53" route="route0" type="Car" /><vehicle arrivalLane="0" color="green" depart="52.8954060466" departLane="0" id="54" route="route0" type="Car" /><vehicle arrivalLane="0" color="green" depart="52.8954060466" departLane="0" id="55" route="route0" type="Car" /><vehicle arrivalLane="1" color="green" depart="52.8954060466" departLane="1" id="56" route="route0" type="Car" /><vehicle arrivalLane="0" color="green" depart="56.4904318978" departLane="0" id="57" route="route0" type="Car" /><vehicle arrivalLane="0" color="green" depart="56.4904318978" departLane="0" id="58" route="route0" type="Car" /><vehicle arrivalLane="0" color="green" depart="56.4904318978" departLane="0" id="59" route="route0" type="Car" /><vehicle arrivalLane="0" color="green" depart="56.4904318978" departLane="0" id="60" route="route0" type="Car" /><vehicle arrivalLane="0" color="green" depart="56.4904318978" departLane="0" id="61" route="route0" type="Car" /><vehicle arrivalLane="1" color="green" depart="56.4904318978" departLane="1" id="62" route="route0" type="Car" /><vehicle arrivalLane="0" color="green" depart="63.0091279426" departLane="0" id="63" route="route0" type="Car" /><vehicle arrivalLane="0" color="green" depart="63.0091279426" departLane="0" id="64" route="route0" type="Car" /><vehicle arrivalLane="0" color="green" depart="63.0091279426" departLane="0" id="65" route="route0" type="Car" /><vehicle arrivalLane="0" color="green" depart="63.0091279426" departLane="0" id="66" route="route0" type="Car" /><vehicle arrivalLane="1" color="green" depart="63.0091279426" departLane="1" id="67" route="route0" type="Car" /><vehicle arrivalLane="0" color="green" depart="68.525658115" departLane="0" id="68" route="route0" type="Car" /><vehicle arrivalLane="0" color="green" depart="68.525658115" departLane="0" id="69" route="route0" type="Car" /><vehicle arrivalLane="0" color="green" depart="68.525658115" departLane="0" id="70" route="route0" type="Car" /><vehicle arrivalLane="1" color="green" depart="68.525658115" departLane="1" id="71" route="route0" type="Car" /><vehicle arrivalLane="0" color="green" depart="70.2764848979" departLane="0" id="72" route="route0" type="Car" /><vehicle arrivalLane="0" color="green" depart="70.2764848979" departLane="0" id="73" route="route0" type="Car" /><vehicle arrivalLane="1" color="green" depart="70.2764848979" departLane="1" id="74" route="route0" type="Car" /><vehicle arrivalLane="1" color="green" depart="72.2618427375" departLane="1" id="75" route="route0" type="Car" /><vehicle arrivalLane="1" color="green" depart="72.6674044554" departLane="1" id="76" route="route0" type="Car" /><vehicle arrivalLane="1" color="green" depart="75.3351280187" departLane="1" id="77" route="route0" type="Car" /><vehicle arrivalLane="1" color="green" depart="75.6798467039" departLane="1" id="78" route="route0" type="Car" /><vehicle arrivalLane="1" color="green" depart="76.4676383357" departLane="1" id="79" route="route0" type="Car" /><vehicle arrivalLane="0" color="green" depart="77.0425574382" departLane="0" id="80" route="route0" type="Car" /><vehicle arrivalLane="1" color="green" depart="77.0425574382" departLane="1" id="81" route="route0" type="Car" /><vehicle arrivalLane="1" color="green" depart="77.1002743218" departLane="1" id="82" route="route0" type="Car" /><vehicle arrivalLane="1" color="green" depart="78.9477104278" departLane="1" id="83" route="route0" type="Car" /><vehicle arrivalLane="1" color="green" depart="79.2143835155" departLane="1" id="84" route="route0" type="Car" /><vehicle arrivalLane="0" color="green" depart="80.3945801783" departLane="0" id="85" route="route0" type="Car" /><vehicle arrivalLane="1" color="green" depart="80.3945801783" departLane="1" id="86" route="route0" type="Car" /><vehicle arrivalLane="0" color="green" depart="82.3020823099" departLane="0" id="87" route="route0" type="Car" /><vehicle arrivalLane="1" color="green" depart="82.3020823099" departLane="1" id="88" route="route0" type="Car" /><vehicle arrivalLane="0" color="green" depart="83.6710696515" departLane="0" id="89" route="route0" type="Car" /><vehicle arrivalLane="1" color="green" depart="83.6710696515" departLane="1" id="90" route="route0" type="Car" /><vehicle arrivalLane="0" color="green" depart="87.5983983917" departLane="0" id="91" route="route0" type="Car" /><vehicle arrivalLane="0" color="green" depart="87.5983983917" departLane="0" id="92" route="route0" type="Car" /><vehicle arrivalLane="0" color="red" depart="87.5983983917" departLane="0" id="vip" route="route0" type="CarVIP" /><vehicle arrivalLane="0" color="green" depart="87.5983983917" departLane="0" id="94" route="route0" type="Car" /><vehicle arrivalLane="1" color="green" depart="87.5983983917" departLane="1" id="95" route="route0" type="Car" /><vehicle arrivalLane="1" color="green" depart="87.8250276754" departLane="1" id="96" route="route0" type="Car" /><vehicle arrivalLane="0" color="green" depart="90.3141088229" departLane="0" id="97" route="route0" type="Car" /><vehicle arrivalLane="0" color="green" depart="90.3141088229" departLane="0" id="98" route="route0" type="Car" /><vehicle arrivalLane="0" color="green" depart="90.3141088229" departLane="0" id="99" route="route0" type="Car" /><vehicle arrivalLane="1" color="green" depart="90.3141088229" departLane="1" id="100" route="route0" type="Car" /><vehicle arrivalLane="0" color="green" depart="91.0406884659" departLane="0" id="101" route="route0" type="Car" /><vehicle arrivalLane="0" color="green" depart="91.0406884659" departLane="0" id="102" route="route0" type="Car" /><vehicle arrivalLane="1" color="green" depart="91.0406884659" departLane="1" id="103" route="route0" type="Car" /><vehicle arrivalLane="0" color="green" depart="92.6232792149" departLane="0" id="104" route="route0" type="Car" /><vehicle arrivalLane="0" color="green" depart="92.6232792149" departLane="0" id="105" route="route0" type="Car" /><vehicle arrivalLane="0" color="green" depart="92.6232792149" departLane="0" id="106" route="route0" type="Car" /><vehicle arrivalLane="0" color="green" depart="92.6232792149" departLane="0" id="107" route="route0" type="Car" /><vehicle arrivalLane="1" color="green" depart="92.6232792149" departLane="1" id="108" route="route0" type="Car" /><vehicle arrivalLane="1" color="green" depart="93.754397479" departLane="1" id="109" route="route0" type="Car" /><vehicle arrivalLane="0" color="green" depart="96.9163830149" departLane="0" id="110" route="route0" type="Car" /><vehicle arrivalLane="1" color="green" depart="96.9163830149" departLane="1" id="111" route="route0" type="Car" /><vehicle arrivalLane="1" color="green" depart="98.0923751015" departLane="1" id="112" route="route0" type="Car" /><vehicle arrivalLane="0" color="green" depart="100.023065994" departLane="0" id="113" route="route0" type="Car" /><vehicle arrivalLane="1" color="green" depart="100.023065994" departLane="1" id="114" route="route0" type="Car" /><vehicle arrivalLane="1" color="green" depart="100.689389699" departLane="1" id="115" route="route0" type="Car" /><vehicle arrivalLane="1" color="green" depart="100.731246952" departLane="1" id="116" route="route0" type="Car" /><vehicle arrivalLane="1" color="green" depart="102.244909063" departLane="1" id="117" route="route0" type="Car" /><vehicle arrivalLane="0" color="green" depart="105.26395326" departLane="0" id="118" route="route0" type="Car" /><vehicle arrivalLane="1" color="green" depart="105.26395326" departLane="1" id="119" route="route0" type="Car" /><vehicle arrivalLane="1" color="green" depart="105.92373566" departLane="1" id="120" route="route0" type="Car" /><vehicle arrivalLane="1" color="green" depart="106.55059456" departLane="1" id="121" route="route0" type="Car" /><vehicle arrivalLane="1" color="green" depart="106.89484522" departLane="1" id="122" route="route0" type="Car" /><vehicle arrivalLane="1" color="green" depart="106.970125154" departLane="1" id="123" route="route0" type="Car" /><vehicle arrivalLane="0" color="green" depart="108.364558607" departLane="0" id="124" route="route0" type="Car" /><vehicle arrivalLane="1" color="green" depart="108.364558607" departLane="1" id="125" route="route0" type="Car" /><vehicle arrivalLane="1" color="green" depart="108.389486851" departLane="1" id="126" route="route0" type="Car" /><vehicle arrivalLane="0" color="green" depart="110.357883192" departLane="0" id="127" route="route0" type="Car" /><vehicle arrivalLane="1" color="green" depart="110.357883192" departLane="1" id="128" route="route0" type="Car" /><vehicle arrivalLane="1" color="green" depart="110.806568982" departLane="1" id="129" route="route0" type="Car" /><vehicle arrivalLane="1" color="green" depart="111.046822796" departLane="1" id="130" route="route0" type="Car" /><vehicle arrivalLane="0" color="green" depart="117.409882637" departLane="0" id="131" route="route0" type="Car" /><vehicle arrivalLane="0" color="green" depart="117.409882637" departLane="0" id="132" route="route0" type="Car" /><vehicle arrivalLane="0" color="green" depart="117.409882637" departLane="0" id="133" route="route0" type="Car" /><vehicle arrivalLane="0" color="green" depart="117.409882637" departLane="0" id="134" route="route0" type="Car" /><vehicle arrivalLane="0" color="green" depart="117.409882637" departLane="0" id="135" route="route0" type="Car" /><vehicle arrivalLane="0" color="green" depart="117.409882637" departLane="0" id="136" route="route0" type="Car" /><vehicle arrivalLane="1" color="green" depart="117.409882637" departLane="1" id="137" route="route0" type="Car" /><vehicle arrivalLane="0" color="green" depart="123.804986744" departLane="0" id="138" route="route0" type="Car" /><vehicle arrivalLane="0" color="green" depart="123.804986744" departLane="0" id="139" route="route0" type="Car" /><vehicle arrivalLane="0" color="green" depart="123.804986744" departLane="0" id="140" route="route0" type="Car" /><vehicle arrivalLane="0" color="green" depart="123.804986744" departLane="0" id="141" route="route0" type="Car" /><vehicle arrivalLane="0" color="green" depart="123.804986744" departLane="0" id="142" route="route0" type="Car" /><vehicle arrivalLane="1" color="green" depart="123.804986744" departLane="1" id="143" route="route0" type="Car" /><vehicle arrivalLane="1" color="green" depart="125.776559669" departLane="1" id="144" route="route0" type="Car" /><vehicle arrivalLane="1" color="green" depart="126.111585718" departLane="1" id="145" route="route0" type="Car" /><vehicle arrivalLane="1" color="green" depart="126.790161035" departLane="1" id="146" route="route0" type="Car" /><vehicle arrivalLane="0" color="green" depart="131.960182013" departLane="0" id="147" route="route0" type="Car" /><vehicle arrivalLane="0" color="green" depart="131.960182013" departLane="0" id="148" route="route0" type="Car" /><vehicle arrivalLane="0" color="green" depart="131.960182013" departLane="0" id="149" route="route0" type="Car" /><vehicle arrivalLane="0" color="green" depart="131.960182013" departLane="0" id="150" route="route0" type="Car" /><vehicle arrivalLane="1" color="green" depart="131.960182013" departLane="1" id="151" route="route0" type="Car" /><vehicle arrivalLane="0" color="green" depart="139.457246198" departLane="0" id="152" route="route0" type="Car" /><vehicle arrivalLane="0" color="green" depart="139.457246198" departLane="0" id="153" route="route0" type="Car" /><vehicle arrivalLane="1" color="green" depart="139.457246198" departLane="1" id="154" route="route0" type="Car" /><vehicle arrivalLane="1" color="green" depart="141.216629476" departLane="1" id="155" route="route0" type="Car" /><vehicle arrivalLane="1" color="green" depart="142.675118072" departLane="1" id="156" route="route0" type="Car" /><vehicle arrivalLane="1" color="green" depart="142.814708321" departLane="1" id="157" route="route0" type="Car" /><vehicle arrivalLane="0" color="green" depart="146.885834242" departLane="0" id="158" route="route0" type="Car" /><vehicle arrivalLane="0" color="green" depart="146.885834242" departLane="0" id="159" route="route0" type="Car" /><vehicle arrivalLane="1" color="green" depart="146.885834242" departLane="1" id="160" route="route0" type="Car" /><vehicle arrivalLane="0" color="green" depart="148.427585966" departLane="0" id="161" route="route0" type="Car" /><vehicle arrivalLane="1" color="green" depart="148.427585966" departLane="1" id="162" route="route0" type="Car" /><vehicle arrivalLane="0" color="green" depart="149.722291806" departLane="0" id="163" route="route0" type="Car" /><vehicle arrivalLane="1" color="green" depart="149.722291806" departLane="1" id="164" route="route0" type="Car" /><vehicle arrivalLane="0" color="green" depart="155.047801182" departLane="0" id="165" route="route0" type="Car" /><vehicle arrivalLane="0" color="green" depart="155.047801182" departLane="0" id="166" route="route0" type="Car" /><vehicle arrivalLane="1" color="green" depart="155.047801182" departLane="1" id="167" route="route0" type="Car" /><vehicle arrivalLane="1" color="green" depart="155.137215042" departLane="1" id="168" route="route0" type="Car" /><vehicle arrivalLane="1" color="green" depart="155.1928737" departLane="1" id="169" route="route0" type="Car" /><vehicle arrivalLane="0" color="green" depart="159.521240841" departLane="0" id="170" route="route0" type="Car" /><vehicle arrivalLane="0" color="green" depart="159.521240841" departLane="0" id="171" route="route0" type="Car" /><vehicle arrivalLane="0" color="green" depart="159.521240841" departLane="0" id="172" route="route0" type="Car" /><vehicle arrivalLane="1" color="green" depart="159.521240841" departLane="1" id="173" route="route0" type="Car" /><vehicle arrivalLane="1" color="green" depart="161.649937379" departLane="1" id="174" route="route0" type="Car" /><vehicle arrivalLane="1" color="green" depart="162.248062476" departLane="1" id="175" route="route0" type="Car" /><vehicle arrivalLane="0" color="green" depart="166.813560817" departLane="0" id="176" route="route0" type="Car" /><vehicle arrivalLane="0" color="green" depart="166.813560817" departLane="0" id="177" route="route0" type="Car" /><vehicle arrivalLane="0" color="green" depart="166.813560817" departLane="0" id="178" route="route0" type="Car" /><vehicle arrivalLane="1" color="green" depart="166.813560817" departLane="1" id="179" route="route0" type="Car" /><vehicle arrivalLane="1" color="green" depart="166.859026609" departLane="1" id="180" route="route0" type="Car" /><vehicle arrivalLane="0" color="green" depart="170.80779261" departLane="0" id="181" route="route0" type="Car" /><vehicle arrivalLane="0" color="green" depart="170.80779261" departLane="0" id="182" route="route0" type="Car" /><vehicle arrivalLane="1" color="green" depart="170.80779261" departLane="1" id="183" route="route0" type="Car" /><vehicle arrivalLane="1" color="green" depart="171.584701798" departLane="1" id="184" route="route0" type="Car" /><vehicle arrivalLane="0" color="green" depart="173.77447121" departLane="0" id="185" route="route0" type="Car" /><vehicle arrivalLane="0" color="green" depart="173.77447121" departLane="0" id="186" route="route0" type="Car" /><vehicle arrivalLane="0" color="green" depart="173.77447121" departLane="0" id="187" route="route0" type="Car" /><vehicle arrivalLane="1" color="green" depart="173.77447121" departLane="1" id="188" route="route0" type="Car" /><vehicle arrivalLane="1" color="green" depart="174.450118412" departLane="1" id="189" route="route0" type="Car" /><vehicle arrivalLane="1" color="green" depart="175.844124692" departLane="1" id="190" route="route0" type="Car" /><vehicle arrivalLane="1" color="green" depart="177.693127886" departLane="1" id="191" route="route0" type="Car" /><vehicle arrivalLane="1" color="green" depart="181.394035435" departLane="1" id="192" route="route0" type="Car" /><vehicle arrivalLane="1" color="green" depart="181.676061885" departLane="1" id="193" route="route0" type="Car" /><vehicle arrivalLane="1" color="green" depart="185.298096785" departLane="1" id="194" route="route0" type="Car" /><vehicle arrivalLane="1" color="green" depart="188.73612351" departLane="1" id="195" route="route0" type="Car" /><vehicle arrivalLane="1" color="green" depart="191.483779439" departLane="1" id="196" route="route0" type="Car" /><vehicle arrivalLane="1" color="green" depart="192.238369324" departLane="1" id="197" route="route0" type="Car" /><vehicle arrivalLane="1" color="green" depart="192.397316702" departLane="1" id="198" route="route0" type="Car" /><vehicle arrivalLane="1" color="green" depart="192.848257534" departLane="1" id="199" route="route0" type="Car" /></routes>