<routes><vType accel="2.9" decel="7.5" id="Car" length="4.3" maxSpeed="27.78" minGap="-1" sigma="0.0" tau="0" /><vType accel="2.9" decel="7.5" id="CarVIP" length="6.5" maxSpeed="27.78" minGap="-1" sigma="0.0" tau="0" /><route edges="1to2" id="route0" /><vehicle arrivalLane="0" color="green" depart="3.00380555094" departLane="0" id="0" route="route0" type="Car" /><vehicle arrivalLane="1" color="green" depart="3.00380555094" departLane="1" id="1" route="route0" type="Car" /><vehicle arrivalLane="1" color="green" depart="5.13090337559" departLane="1" id="2" route="route0" type="Car" /><vehicle arrivalLane="1" color="green" depart="6.27367633169" departLane="1" id="3" route="route0" type="Car" /><vehicle arrivalLane="0" color="green" depart="15.0130320288" departLane="0" id="4" route="route0" type="Car" /><vehicle arrivalLane="0" color="green" depart="15.0130320288" departLane="0" id="5" route="route0" type="Car" /><vehicle arrivalLane="0" color="green" depart="15.0130320288" departLane="0" id="6" route="route0" type="Car" /><vehicle arrivalLane="0" color="green" depart="15.0130320288" departLane="0" id="7" route="route0" type="Car" /><vehicle arrivalLane="0" color="green" depart="15.0130320288" departLane="0" id="8" route="route0" type="Car" /><vehicle arrivalLane="1" color="green" depart="15.0130320288" departLane="1" id="9" route="route0" type="Car" /><vehicle arrivalLane="0" color="green" depart="24.1316227706" departLane="0" id="10" route="route0" type="Car" /><vehicle arrivalLane="1" color="green" depart="24.1316227706" departLane="1" id="11" route="route0" type="Car" /><vehicle arrivalLane="1" color="green" depart="24.4112616341" departLane="1" id="12" route="route0" type="Car" /><vehicle arrivalLane="0" color="green" depart="24.942218018" departLane="0" id="13" route="route0" type="Car" /><vehicle arrivalLane="1" color="green" depart="24.942218018" departLane="1" id="14" route="route0" type="Car" /><vehicle arrivalLane="0" color="green" depart="27.4943981428" departLane="0" id="15" route="route0" type="Car" /><vehicle arrivalLane="0" color="green" depart="27.4943981428" departLane="0" id="16" route="route0" type="Car" /><vehicle arrivalLane="1" color="green" depart="27.4943981428" departLane="1" id="17" route="route0" type="Car" /><vehicle arrivalLane="0" color="green" depart="28.8469742482" departLane="0" id="18" route="route0" type="Car" /><vehicle arrivalLane="1" color="green" depart="28.8469742482" departLane="1" id="19" route="route0" type="Car" /><vehicle arrivalLane="0" color="green" depart="35.4013655747" departLane="0" id="20" route="route0" type="Car" /><vehicle arrivalLane="0" color="green" depart="35.4013655747" departLane="0" id="21" route="route0" type="Car" /><vehicle arrivalLane="0" color="green" depart="35.4013655747" departLane="0" id="22" route="route0" type="Car" /><vehicle arrivalLane="0" color="green" depart="35.4013655747" departLane="0" id="23" route="route0" type="Car" /><vehicle arrivalLane="1" color="green" depart="35.4013655747" departLane="1" id="24" route="route0" type="Car" /><vehicle arrivalLane="1" color="green" depart="35.7387861575" departLane="1" id="25" route="route0" type="Car" /><vehicle arrivalLane="1" color="green" depart="36.5807059163" departLane="1" id="26" route="route0" type="Car" /><vehicle arrivalLane="1" color="green" depart="36.8849733734" departLane="1" id="27" route="route0" type="Car" /><vehicle arrivalLane="0" color="green" depart="37.9160119207" departLane="0" id="28" route="route0" type="Car" /><vehicle arrivalLane="1" color="green" depart="37.9160119207" departLane="1" id="29" route="route0" type="Car" /><vehicle arrivalLane="0" color="green" depart="40.5611442915" departLane="0" id="30" route="route0" type="Car" /><vehicle arrivalLane="1" color="green" depart="40.5611442915" departLane="1" id="31" route="route0" type="Car" /><vehicle arrivalLane="1" color="green" depart="42.2242069465" departLane="1" id="32" route="route0" type="Car" /><vehicle arrivalLane="1" color="green" depart="42.5639698207" departLane="1" id="33" route="route0" type="Car" /><vehicle arrivalLane="1" color="green" depart="44.0227228936" departLane="1" id="34" route="route0" type="Car" /><vehicle arrivalLane="0" color="green" depart="51.8162418484" departLane="0" id="35" route="route0" type="Car" /><vehicle arrivalLane="0" color="green" depart="51.8162418484" departLane="0" id="36" route="route0" type="Car" /><vehicle arrivalLane="0" color="green" depart="51.8162418484" departLane="0" id="37" route="route0" type="Car" /><vehicle arrivalLane="0" color="green" depart="51.8162418484" departLane="0" id="38" route="route0" type="Car" /><vehicle arrivalLane="1" color="green" depart="51.8162418484" departLane="1" id="39" route="route0" type="Car" /><vehicle arrivalLane="0" color="green" depart="59.6213961177" departLane="0" id="40" route="route0" type="Car" /><vehicle arrivalLane="0" color="green" depart="59.6213961177" departLane="0" id="41" route="route0" type="Car" /><vehicle arrivalLane="0" color="green" depart="59.6213961177" departLane="0" id="42" route="route0" type="Car" /><vehicle arrivalLane="0" color="green" depart="59.6213961177" departLane="0" id="43" route="route0" type="Car" /><vehicle arrivalLane="0" color="green" depart="59.6213961177" departLane="0" id="44" route="route0" type="Car" /><vehicle arrivalLane="0" color="green" depart="59.6213961177" departLane="0" id="45" route="route0" type="Car" /><vehicle arrivalLane="1" color="green" depart="59.6213961177" departLane="1" id="46" route="route0" type="Car" /><vehicle arrivalLane="0" color="green" depart="63.1689843602" departLane="0" id="47" route="route0" type="Car" /><vehicle arrivalLane="1" color="green" depart="63.1689843602" departLane="1" id="48" route="route0" type="Car" /><vehicle arrivalLane="0" color="green" depart="67.8151474832" departLane="0" id="49" route="route0" type="Car" /><vehicle arrivalLane="0" color="green" depart="67.8151474832" departLane="0" id="50" route="route0" type="Car" /><vehicle arrivalLane="1" color="green" depart="67.8151474832" departLane="1" id="51" route="route0" type="Car" /><vehicle arrivalLane="1" color="green" depart="68.6245510716" departLane="1" id="52" route="route0" type="Car" /><vehicle arrivalLane="1" color="green" depart="69.3319702588" departLane="1" id="53" route="route0" type="Car" /><vehicle arrivalLane="1" color="green" depart="69.5172015934" departLane="1" id="54" route="route0" type="Car" /><vehicle arrivalLane="0" color="green" depart="70.6100967903" departLane="0" id="55" route="route0" type="Car" /><vehicle arrivalLane="1" color="green" depart="70.6100967903" departLane="1" id="56" route="route0" type="Car" /><vehicle arrivalLane="0" color="green" depart="76.3615665407" departLane="0" id="57" route="route0" type="Car" /><vehicle arrivalLane="0" color="green" depart="76.3615665407" departLane="0" id="58" route="route0" type="Car" /><vehicle arrivalLane="0" color="green" depart="76.3615665407" departLane="0" id="59" route="route0" type="Car" /><vehicle arrivalLane="0" color="green" depart="76.3615665407" departLane="0" id="60" route="route0" type="Car" /><vehicle arrivalLane="1" color="green" depart="76.3615665407" departLane="1" id="61" route="route0" type="Car" /><vehicle arrivalLane="0" color="green" depart="77.2175023917" departLane="0" id="62" route="route0" type="Car" /><vehicle arrivalLane="1" color="green" depart="77.2175023917" departLane="1" id="63" route="route0" type="Car" /><vehicle arrivalLane="1" color="green" depart="78.4987454288" departLane="1" id="64" route="route0" type="Car" /><vehicle arrivalLane="0" color="green" depart="80.3707894804" departLane="0" id="65" route="route0" type="Car" /><vehicle arrivalLane="0" color="green" depart="80.3707894804" departLane="0" id="66" route="route0" type="Car" /><vehicle arrivalLane="0" color="green" depart="80.3707894804" departLane="0" id="67" route="route0" type="Car" /><vehicle arrivalLane="1" color="green" depart="80.3707894804" departLane="1" id="68" route="route0" type="Car" /><vehicle arrivalLane="0" color="green" depart="81.9679841922" departLane="0" id="69" route="route0" type="Car" /><vehicle arrivalLane="0" color="green" depart="81.9679841922" departLane="0" id="70" route="route0" type="Car" /><vehicle arrivalLane="1" color="green" depart="81.9679841922" departLane="1" id="71" route="route0" type="Car" /><vehicle arrivalLane="0" color="green" depart="82.3714480233" departLane="0" id="72" route="route0" type="Car" /><vehicle arrivalLane="1" color="green" depart="82.3714480233" departLane="1" id="73" route="route0" type="Car" /><vehicle arrivalLane="0" color="green" depart="83.1979852995" departLane="0" id="74" route="route0" type="Car" /><vehicle arrivalLane="1" color="green" depart="83.1979852995" departLane="1" id="75" route="route0" type="Car" /><vehicle arrivalLane="0" color="green" depart="88.1457950742" departLane="0" id="76" route="route0" type="Car" /><vehicle arrivalLane="0" color="green" depart="88.1457950742" departLane="0" id="77" route="route0" type="Car" /><vehicle arrivalLane="0" color="green" depart="88.1457950742" departLane="0" id="78" route="route0" type="Car" /><vehicle arrivalLane="0" color="green" depart="88.1457950742" departLane="0" id="79" route="route0" type="Car" /><vehicle arrivalLane="0" color="green" depart="88.1457950742" departLane="0" id="80" route="route0" type="Car" /><vehicle arrivalLane="0" color="green" depart="88.1457950742" departLane="0" id="81" route="route0" type="Car" /><vehicle arrivalLane="0" color="green" depart="88.1457950742" departLane="0" id="82" route="route0" type="Car" /><vehicle arrivalLane="1" color="green" depart="88.1457950742" departLane="1" id="83" route="route0" type="Car" /><vehicle arrivalLane="1" color="green" depart="88.3455667529" departLane="1" id="84" route="route0" type="Car" /><vehicle arrivalLane="0" color="red" depart="91.0085513137" departLane="0" id="vip" route="route0" type="CarVIP" /><vehicle arrivalLane="1" color="green" depart="91.0085513137" departLane="1" id="86" route="route0" type="Car" /><vehicle arrivalLane="1" color="green" depart="91.207353355" departLane="1" id="87" route="route0" type="Car" /><vehicle arrivalLane="1" color="green" depart="92.2348298779" departLane="1" id="88" route="route0" type="Car" /><vehicle arrivalLane="0" color="green" depart="95.2055130941" departLane="0" id="89" route="route0" type="Car" /><vehicle arrivalLane="1" color="green" depart="95.2055130941" departLane="1" id="90" route="route0" type="Car" /><vehicle arrivalLane="0" color="green" depart="98.3021675839" departLane="0" id="91" route="route0" type="Car" /><vehicle arrivalLane="1" color="green" depart="98.3021675839" departLane="1" id="92" route="route0" type="Car" /><vehicle arrivalLane="0" color="green" depart="100.171912321" departLane="0" id="93" route="route0" type="Car" /><vehicle arrivalLane="1" color="green" depart="100.171912321" departLane="1" id="94" route="route0" type="Car" /><vehicle arrivalLane="1" color="green" depart="100.360734425" departLane="1" id="95" route="route0" type="Car" /><vehicle arrivalLane="0" color="green" depart="106.599947347" departLane="0" id="96" route="route0" type="Car" /><vehicle arrivalLane="0" color="green" depart="106.599947347" departLane="0" id="97" route="route0" type="Car" /><vehicle arrivalLane="0" color="green" depart="106.599947347" departLane="0" id="98" route="route0" type="Car" /><vehicle arrivalLane="0" color="green" depart="106.599947347" departLane="0" id="99" route="route0" type="Car" /><vehicle arrivalLane="1" color="green" depart="106.599947347" departLane="1" id="100" route="route0" type="Car" /><vehicle arrivalLane="0" color="green" depart="113.202326297" departLane="0" id="101" route="route0" type="Car" /><vehicle arrivalLane="0" color="green" depart="113.202326297" departLane="0" id="102" route="route0" type="Car" /><vehicle arrivalLane="0" color="green" depart="113.202326297" departLane="0" id="103" route="route0" type="Car" /><vehicle arrivalLane="1" color="green" depart="113.202326297" departLane="1" id="104" route="route0" type="Car" /><vehicle arrivalLane="0" color="green" depart="115.1884118" departLane="0" id="105" route="route0" type="Car" /><vehicle arrivalLane="1" color="green" depart="115.1884118" departLane="1" id="106" route="route0" type="Car" /><vehicle arrivalLane="1" color="green" depart="115.80597765" departLane="1" id="107" route="route0" type="Car" /><vehicle arrivalLane="0" color="green" depart="119.999540108" departLane="0" id="108" route="route0" type="Car" /><vehicle arrivalLane="1" color="green" depart="119.999540108" departLane="1" id="109" route="route0" type="Car" /><vehicle arrivalLane="0" color="green" depart="123.32211309" departLane="0" id="110" route="route0" type="Car" /><vehicle arrivalLane="0" color="green" depart="123.32211309" departLane="0" id="111" route="route0" type="Car" /><vehicle arrivalLane="0" color="green" depart="123.32211309" departLane="0" id="112" route="route0" type="Car" /><vehicle arrivalLane="0" color="green" depart="123.32211309" departLane="0" id="113" route="route0" type="Car" /><vehicle arrivalLane="0" color="green" depart="123.32211309" departLane="0" id="114" route="route0" type="Car" /><vehicle arrivalLane="0" color="green" depart="123.32211309" departLane="0" id="115" route="route0" type="Car" /><vehicle arrivalLane="0" color="green" depart="123.32211309" departLane="0" id="116" route="route0" type="Car" /><vehicle arrivalLane="1" color="green" depart="123.32211309" departLane="1" id="117" route="route0" type="Car" /><vehicle arrivalLane="1" color="green" depart="123.737043113" departLane="1" id="118" route="route0" type="Car" /><vehicle arrivalLane="0" color="green" depart="126.782708946" departLane="0" id="119" route="route0" type="Car" /><vehicle arrivalLane="0" color="green" depart="126.782708946" departLane="0" id="120" route="route0" type="Car" /><vehicle arrivalLane="1" color="green" depart="126.782708946" departLane="1" id="121" route="route0" type="Car" /><vehicle arrivalLane="1" color="green" depart="127.463653297" departLane="1" id="122" route="route0" type="Car" /><vehicle arrivalLane="1" color="green" depart="127.707214002" departLane="1" id="123" route="route0" type="Car" /><vehicle arrivalLane="1" color="green" depart="128.781470788" departLane="1" id="124" route="route0" type="Car" /><vehicle arrivalLane="0" color="green" depart="135.980816761" departLane="0" id="125" route="route0" type="Car" /><vehicle arrivalLane="0" color="green" depart="135.980816761" departLane="0" id="126" route="route0" type="Car" /><vehicle arrivalLane="0" color="green" depart="135.980816761" departLane="0" id="127" route="route0" type="Car" /><vehicle arrivalLane="1" color="green" depart="135.980816761" departLane="1" id="128" route="route0" type="Car" /><vehicle arrivalLane="1" color="green" depart="136.277520922" departLane="1" id="129" route="route0" type="Car" /><vehicle arrivalLane="1" color="green" depart="136.623240916" departLane="1" id="130" route="route0" type="Car" /><vehicle arrivalLane="0" color="green" depart="139.446514315" departLane="0" id="131" route="route0" type="Car" /><vehicle arrivalLane="1" color="green" depart="139.446514315" departLane="1" id="132" route="route0" type="Car" /><vehicle arrivalLane="1" color="green" depart="140.25019311" departLane="1" id="133" route="route0" type="Car" /><vehicle arrivalLane="0" color="green" depart="144.629480276" departLane="0" id="134" route="route0" type="Car" /><vehicle arrivalLane="0" color="green" depart="144.629480276" departLane="0" id="135" route="route0" type="Car" /><vehicle arrivalLane="1" color="green" depart="144.629480276" departLane="1" id="136" route="route0" type="Car" /><vehicle arrivalLane="0" color="green" depart="146.50259743" departLane="0" id="137" route="route0" type="Car" /><vehicle arrivalLane="1" color="green" depart="146.50259743" departLane="1" id="138" route="route0" type="Car" /><vehicle arrivalLane="1" color="green" depart="146.90022116" departLane="1" id="139" route="route0" type="Car" /><vehicle arrivalLane="1" color="green" depart="147.78281353" departLane="1" id="140" route="route0" type="Car" /><vehicle arrivalLane="0" color="green" depart="148.50388369" departLane="0" id="141" route="route0" type="Car" /><vehicle arrivalLane="1" color="green" depart="148.50388369" departLane="1" id="142" route="route0" type="Car" /><vehicle arrivalLane="0" color="green" depart="149.408928972" departLane="0" id="143" route="route0" type="Car" /><vehicle arrivalLane="1" color="green" depart="149.408928972" departLane="1" id="144" route="route0" type="Car" /><vehicle arrivalLane="0" color="green" depart="149.941417974" departLane="0" id="145" route="route0" type="Car" /><vehicle arrivalLane="1" color="green" depart="149.941417974" departLane="1" id="146" route="route0" type="Car" /><vehicle arrivalLane="0" color="green" depart="155.052291625" departLane="0" id="147" route="route0" type="Car" /><vehicle arrivalLane="0" color="green" depart="155.052291625" departLane="0" id="148" route="route0" type="Car" /><vehicle arrivalLane="1" color="green" depart="155.052291625" departLane="1" id="149" route="route0" type="Car" /><vehicle arrivalLane="1" color="green" depart="156.862432239" departLane="1" id="150" route="route0" type="Car" /><vehicle arrivalLane="1" color="green" depart="158.191678026" departLane="1" id="151" route="route0" type="Car" /><vehicle arrivalLane="1" color="green" depart="158.368076162" departLane="1" id="152" route="route0" type="Car" /><vehicle arrivalLane="1" color="green" depart="159.121253202" departLane="1" id="153" route="route0" type="Car" /><vehicle arrivalLane="1" color="green" depart="160.002547935" departLane="1" id="154" route="route0" type="Car" /><vehicle arrivalLane="1" color="green" depart="161.198811509" departLane="1" id="155" route="route0" type="Car" /><vehicle arrivalLane="1" color="green" depart="162.387366407" departLane="1" id="156" route="route0" type="Car" /><vehicle arrivalLane="1" color="green" depart="166.352825464" departLane="1" id="157" route="route0" type="Car" /><vehicle arrivalLane="0" color="green" depart="167.515785421" departLane="0" id="158" route="route0" type="Car" /><vehicle arrivalLane="1" color="green" depart="167.515785421" departLane="1" id="159" route="route0" type="Car" /><vehicle arrivalLane="0" color="green" depart="170.430478277" departLane="0" id="160" route="route0" type="Car" /><vehicle arrivalLane="1" color="green" depart="170.430478277" departLane="1" id="161" route="route0" type="Car" /><vehicle arrivalLane="0" color="green" depart="171.117780015" departLane="0" id="162" route="route0" type="Car" /><vehicle arrivalLane="1" color="green" depart="171.117780015" departLane="1" id="163" route="route0" type="Car" /><vehicle arrivalLane="1" color="green" depart="171.698212951" departLane="1" id="164" route="route0" type="Car" /><vehicle arrivalLane="0" color="green" depart="179.389681826" departLane="0" id="165" route="route0" type="Car" /><vehicle arrivalLane="1" color="green" depart="179.389681826" departLane="1" id="166" route="route0" type="Car" /><vehicle arrivalLane="1" color="green" depart="179.841177988" departLane="1" id="167" route="route0" type="Car" /><vehicle arrivalLane="1" color="green" depart="185.709712782" departLane="1" id="168" route="route0" type="Car" /><vehicle arrivalLane="1" color="green" depart="186.31042606" departLane="1" id="169" route="route0" type="Car" /><vehicle arrivalLane="0" color="green" depart="188.523483932" departLane="0" id="170" route="route0" type="Car" /><vehicle arrivalLane="0" color="green" depart="188.523483932" departLane="0" id="171" route="route0" type="Car" /><vehicle arrivalLane="0" color="green" depart="188.523483932" departLane="0" id="172" route="route0" type="Car" /><vehicle arrivalLane="1" color="green" depart="188.523483932" departLane="1" id="173" route="route0" type="Car" /><vehicle arrivalLane="1" color="green" depart="188.602002648" departLane="1" id="174" route="route0" type="Car" /><vehicle arrivalLane="0" color="green" depart="194.127445181" departLane="0" id="175" route="route0" type="Car" /><vehicle arrivalLane="0" color="green" depart="194.127445181" departLane="0" id="176" route="route0" type="Car" /><vehicle arrivalLane="0" color="green" depart="194.127445181" departLane="0" id="177" route="route0" type="Car" /><vehicle arrivalLane="0" color="green" depart="194.127445181" departLane="0" id="178" route="route0" type="Car" /><vehicle arrivalLane="0" color="green" depart="194.127445181" departLane="0" id="179" route="route0" type="Car" /><vehicle arrivalLane="1" color="green" depart="194.127445181" departLane="1" id="180" route="route0" type="Car" /><vehicle arrivalLane="0" color="green" depart="194.93888456" departLane="0" id="181" route="route0" type="Car" /><vehicle arrivalLane="1" color="green" depart="194.93888456" departLane="1" id="182" route="route0" type="Car" /><vehicle arrivalLane="0" color="green" depart="195.59324612" departLane="0" id="183" route="route0" type="Car" /><vehicle arrivalLane="1" color="green" depart="195.59324612" departLane="1" id="184" route="route0" type="Car" /><vehicle arrivalLane="0" color="green" depart="197.320768748" departLane="0" id="185" route="route0" type="Car" /><vehicle arrivalLane="1" color="green" depart="197.320768748" departLane="1" id="186" route="route0" type="Car" /><vehicle arrivalLane="1" color="green" depart="198.263673657" departLane="1" id="187" route="route0" type="Car" /><vehicle arrivalLane="1" color="green" depart="199.249142645" departLane="1" id="188" route="route0" type="Car" /><vehicle arrivalLane="1" color="green" depart="199.516658881" departLane="1" id="189" route="route0" type="Car" /><vehicle arrivalLane="0" color="green" depart="201.041196603" departLane="0" id="190" route="route0" type="Car" /><vehicle arrivalLane="1" color="green" depart="201.041196603" departLane="1" id="191" route="route0" type="Car" /><vehicle arrivalLane="1" color="green" depart="202.775442203" departLane="1" id="192" route="route0" type="Car" /><vehicle arrivalLane="1" color="green" depart="203.111270244" departLane="1" id="193" route="route0" type="Car" /><vehicle arrivalLane="1" color="green" depart="203.858518118" departLane="1" id="194" route="route0" type="Car" /><vehicle arrivalLane="1" color="green" depart="206.125358835" departLane="1" id="195" route="route0" type="Car" /><vehicle arrivalLane="1" color="green" depart="206.604778558" departLane="1" id="196" route="route0" type="Car" /><vehicle arrivalLane="1" color="green" depart="207.098101182" departLane="1" id="197" route="route0" type="Car" /><vehicle arrivalLane="1" color="green" depart="207.335834068" departLane="1" id="198" route="route0" type="Car" /><vehicle arrivalLane="1" color="green" depart="208.222149962" departLane="1" id="199" route="route0" type="Car" /></routes>