<routes><vType accel="2.9" color="green" decel="7.5" id="Car" length="4.3" maxSpeed="28" minGap="-1" sigma="0.0" tau="0" /><vType accel="2.9" color="red" decel="7.5" id="CarVIP" length="6.5" maxSpeed="28" minGap="-1" sigma="0.0" tau="0" /><route edges="1to2" id="route0" /><vehicle arrivalLane="0" depart="0.980371098327" departLane="0" id="v0" route="route0" type="Car" /><vehicle arrivalLane="1" depart="2.84619781484" departLane="1" id="v1" route="route0" type="Car" /><vehicle arrivalLane="0" depart="5.6498467605" departLane="0" id="v2" route="route0" type="Car" /><vehicle arrivalLane="0" depart="8.67626602223" departLane="0" id="v3" route="route0" type="Car" /><vehicle arrivalLane="0" depart="9.17128153896" departLane="0" id="v4" route="route0" type="Car" /><vehicle arrivalLane="0" depart="16.5001336521" departLane="0" id="v5" route="route0" type="Car" /><vehicle arrivalLane="1" depart="16.5475979579" departLane="1" id="v6" route="route0" type="Car" /><vehicle arrivalLane="1" depart="17.3068859835" departLane="1" id="v7" route="route0" type="Car" /><vehicle arrivalLane="0" depart="18.7660783286" departLane="0" id="v8" route="route0" type="Car" /><vehicle arrivalLane="1" depart="19.5861604641" departLane="1" id="v9" route="route0" type="Car" /><vehicle arrivalLane="0" depart="20.4755967951" departLane="0" id="v10" route="route0" type="Car" /><vehicle arrivalLane="0" depart="21.8124444763" departLane="0" id="v11" route="route0" type="Car" /><vehicle arrivalLane="0" depart="21.9095959224" departLane="0" id="v12" route="route0" type="Car" /><vehicle arrivalLane="0" depart="22.0144237666" departLane="0" id="v13" route="route0" type="Car" /><vehicle arrivalLane="1" depart="22.3082201402" departLane="1" id="v14" route="route0" type="Car" /><vehicle arrivalLane="1" depart="24.9952768338" departLane="1" id="v15" route="route0" type="Car" /><vehicle arrivalLane="0" depart="25.2099700171" departLane="0" id="v16" route="route0" type="Car" /><vehicle arrivalLane="1" depart="25.7802824248" departLane="1" id="v17" route="route0" type="Car" /><vehicle arrivalLane="1" depart="26.7824038257" departLane="1" id="v18" route="route0" type="Car" /><vehicle arrivalLane="0" depart="28.4448282915" departLane="0" id="v19" route="route0" type="Car" /><vehicle arrivalLane="0" depart="28.7899299936" departLane="0" id="v20" route="route0" type="Car" /><vehicle arrivalLane="1" depart="29.6071157305" departLane="1" id="v21" route="route0" type="Car" /><vehicle arrivalLane="1" depart="31.4037530667" departLane="1" id="v22" route="route0" type="Car" /><vehicle arrivalLane="0" depart="31.665661903" departLane="0" id="v23" route="route0" type="Car" /><vehicle arrivalLane="0" depart="33.5921088563" departLane="0" id="v24" route="route0" type="Car" /><vehicle arrivalLane="0" depart="34.0925243212" departLane="0" id="v25" route="route0" type="Car" /><vehicle arrivalLane="0" depart="36.1837073718" departLane="0" id="v26" route="route0" type="Car" /><vehicle arrivalLane="0" depart="37.2792666976" departLane="0" id="v27" route="route0" type="Car" /><vehicle arrivalLane="0" depart="37.5579158189" departLane="0" id="v28" route="route0" type="Car" /><vehicle arrivalLane="1" depart="37.9621736227" departLane="1" id="v29" route="route0" type="Car" /><vehicle arrivalLane="0" depart="38.4514058672" departLane="0" id="v30" route="route0" type="Car" /><vehicle arrivalLane="1" depart="38.5554545319" departLane="1" id="v31" route="route0" type="Car" /><vehicle arrivalLane="1" depart="38.9955846309" departLane="1" id="v32" route="route0" type="Car" /><vehicle arrivalLane="1" depart="39.805966578" departLane="1" id="v33" route="route0" type="Car" /><vehicle arrivalLane="0" depart="41.4719032997" departLane="0" id="v34" route="route0" type="Car" /><vehicle arrivalLane="0" depart="41.9214397493" departLane="0" id="v35" route="route0" type="Car" /><vehicle arrivalLane="1" depart="42.1288107424" departLane="1" id="v36" route="route0" type="Car" /><vehicle arrivalLane="0" depart="44.0351492687" departLane="0" id="v37" route="route0" type="Car" /><vehicle arrivalLane="0" depart="46.0529670392" departLane="0" id="v38" route="route0" type="Car" /><vehicle arrivalLane="0" depart="46.4287543514" departLane="0" id="v39" route="route0" type="Car" /><vehicle arrivalLane="0" depart="47.4482359925" departLane="0" id="v40" route="route0" type="Car" /><vehicle arrivalLane="0" depart="47.7468553808" departLane="0" id="v41" route="route0" type="Car" /><vehicle arrivalLane="0" depart="47.9733141958" departLane="0" id="v42" route="route0" type="Car" /><vehicle arrivalLane="1" depart="48.6649944493" departLane="1" id="v43" route="route0" type="Car" /><vehicle arrivalLane="0" depart="49.0491608407" departLane="0" id="v44" route="route0" type="Car" /><vehicle arrivalLane="1" depart="51.2863309972" departLane="1" id="v45" route="route0" type="Car" /><vehicle arrivalLane="0" depart="51.337758134" departLane="0" id="v46" route="route0" type="Car" /><vehicle arrivalLane="1" depart="51.6813109971" departLane="1" id="v47" route="route0" type="Car" /><vehicle arrivalLane="0" depart="51.7484890799" departLane="0" id="v48" route="route0" type="Car" /><vehicle arrivalLane="0" depart="52.2612761394" departLane="0" id="v49" route="route0" type="Car" /><vehicle arrivalLane="0" depart="52.8174249502" departLane="0" id="v50" route="route0" type="Car" /><vehicle arrivalLane="1" depart="53.6673386048" departLane="1" id="v51" route="route0" type="Car" /><vehicle arrivalLane="1" depart="53.9676636185" departLane="1" id="v52" route="route0" type="Car" /><vehicle arrivalLane="1" depart="54.3893379096" departLane="1" id="v53" route="route0" type="Car" /><vehicle arrivalLane="1" depart="55.1955991276" departLane="1" id="v54" route="route0" type="Car" /><vehicle arrivalLane="0" depart="55.197102867" departLane="0" id="v55" route="route0" type="Car" /><vehicle arrivalLane="1" depart="55.2137496443" departLane="1" id="v56" route="route0" type="Car" /><vehicle arrivalLane="1" depart="55.3285776115" departLane="1" id="v57" route="route0" type="Car" /><vehicle arrivalLane="0" depart="59.5363868841" departLane="0" id="v58" route="route0" type="Car" /><vehicle arrivalLane="1" depart="60.1818537236" departLane="1" id="v59" route="route0" type="Car" /><vehicle arrivalLane="0" depart="60.1993543305" departLane="0" id="v60" route="route0" type="Car" /><vehicle arrivalLane="0" depart="61.3990660579" departLane="0" id="v61" route="route0" type="Car" /><vehicle arrivalLane="0" depart="63.9917627483" departLane="0" id="v62" route="route0" type="Car" /><vehicle arrivalLane="0" depart="65.6741254616" departLane="0" id="v63" route="route0" type="Car" /><vehicle arrivalLane="1" depart="66.7763819537" departLane="1" id="v64" route="route0" type="Car" /><vehicle arrivalLane="1" depart="69.5753608808" departLane="1" id="v65" route="route0" type="Car" /><vehicle arrivalLane="0" depart="70.4099461916" departLane="0" id="v66" route="route0" type="Car" /><vehicle arrivalLane="1" depart="70.4442454795" departLane="1" id="v67" route="route0" type="Car" /><vehicle arrivalLane="1" depart="70.989696443" departLane="1" id="v68" route="route0" type="Car" /><vehicle arrivalLane="0" depart="71.0343978187" departLane="0" id="v69" route="route0" type="Car" /><vehicle arrivalLane="1" depart="71.2120574383" departLane="1" id="v70" route="route0" type="Car" /><vehicle arrivalLane="1" depart="71.5342369801" departLane="1" id="v71" route="route0" type="Car" /><vehicle arrivalLane="0" depart="72.9511429559" departLane="0" id="v72" route="route0" type="Car" /><vehicle arrivalLane="0" depart="77.5587553882" departLane="0" id="v73" route="route0" type="Car" /><vehicle arrivalLane="1" depart="78.4028632624" departLane="1" id="v74" route="route0" type="Car" /><vehicle arrivalLane="0" depart="79.0141443569" departLane="0" id="v75" route="route0" type="Car" /><vehicle arrivalLane="1" depart="79.1129002378" departLane="1" id="v76" route="route0" type="Car" /><vehicle arrivalLane="0" depart="79.2197970387" departLane="0" id="v77" route="route0" type="Car" /><vehicle arrivalLane="0" depart="80.3833799937" departLane="0" id="v78" route="route0" type="Car" /><vehicle arrivalLane="0" depart="80.789833897" departLane="0" id="v79" route="route0" type="Car" /><vehicle arrivalLane="1" depart="81.1119492564" departLane="1" id="v80" route="route0" type="Car" /><vehicle arrivalLane="1" depart="81.5486015982" departLane="1" id="v81" route="route0" type="Car" /><vehicle arrivalLane="1" depart="82.3190375851" departLane="1" id="v82" route="route0" type="Car" /><vehicle arrivalLane="0" depart="82.6037149991" departLane="0" id="v83" route="route0" type="Car" /><vehicle arrivalLane="0" depart="82.7187435421" departLane="0" id="v84" route="route0" type="Car" /><vehicle arrivalLane="0" depart="83.5362816433" departLane="0" id="v85" route="route0" type="Car" /><vehicle arrivalLane="0" depart="85.3543922386" departLane="0" id="v86" route="route0" type="Car" /><vehicle arrivalLane="0" depart="88.1822883491" departLane="0" id="v87" route="route0" type="Car" /><vehicle arrivalLane="1" depart="88.7474758041" departLane="1" id="v88" route="route0" type="Car" /><vehicle arrivalLane="0" depart="89.3724628071" departLane="0" id="v89" route="route0" type="Car" /><vehicle arrivalLane="1" depart="89.6463185011" departLane="1" id="v90" route="route0" type="Car" /><vehicle arrivalLane="0" depart="89.7664025687" departLane="0" id="v91" route="route0" type="Car" /><vehicle arrivalLane="0" depart="91.6992490984" departLane="0" id="v92" route="route0" type="Car" /><vehicle arrivalLane="0" depart="92.1178287269" departLane="0" id="v93" route="route0" type="Car" /><vehicle arrivalLane="1" depart="92.6317135489" departLane="1" id="v94" route="route0" type="Car" /><vehicle arrivalLane="1" depart="92.9386212731" departLane="1" id="v95" route="route0" type="Car" /><vehicle arrivalLane="1" depart="93.5086833001" departLane="1" id="v96" route="route0" type="Car" /><vehicle depart="98.7255991136" departLane="0" id="vip" route="route0" type="CarVIP" /><vehicle arrivalLane="0" depart="99.5095731278" departLane="0" id="v97" route="route0" type="Car" /><vehicle arrivalLane="0" depart="99.7072256491" departLane="0" id="v98" route="route0" type="Car" /><vehicle arrivalLane="1" depart="100.753817338" departLane="1" id="v99" route="route0" type="Car" /><vehicle arrivalLane="1" depart="104.230885807" departLane="1" id="v100" route="route0" type="Car" /><vehicle arrivalLane="0" depart="104.250001018" departLane="0" id="v101" route="route0" type="Car" /><vehicle arrivalLane="0" depart="104.6268803" departLane="0" id="v102" route="route0" type="Car" /><vehicle arrivalLane="0" depart="106.47906719" departLane="0" id="v103" route="route0" type="Car" /><vehicle arrivalLane="1" depart="107.164443721" departLane="1" id="v104" route="route0" type="Car" /><vehicle arrivalLane="0" depart="110.432654367" departLane="0" id="v105" route="route0" type="Car" /><vehicle arrivalLane="1" depart="110.678589675" departLane="1" id="v106" route="route0" type="Car" /><vehicle arrivalLane="0" depart="110.970450391" departLane="0" id="v107" route="route0" type="Car" /><vehicle arrivalLane="1" depart="111.333585369" departLane="1" id="v108" route="route0" type="Car" /><vehicle arrivalLane="1" depart="112.186914512" departLane="1" id="v109" route="route0" type="Car" /><vehicle arrivalLane="0" depart="112.873616225" departLane="0" id="v110" route="route0" type="Car" /><vehicle arrivalLane="1" depart="113.572418827" departLane="1" id="v111" route="route0" type="Car" /><vehicle arrivalLane="1" depart="113.747428666" departLane="1" id="v112" route="route0" type="Car" /><vehicle arrivalLane="1" depart="114.190951282" departLane="1" id="v113" route="route0" type="Car" /><vehicle arrivalLane="0" depart="114.554874393" departLane="0" id="v114" route="route0" type="Car" /><vehicle arrivalLane="1" depart="116.005016692" departLane="1" id="v115" route="route0" type="Car" /><vehicle arrivalLane="0" depart="116.399440018" departLane="0" id="v116" route="route0" type="Car" /><vehicle arrivalLane="1" depart="116.639345947" departLane="1" id="v117" route="route0" type="Car" /><vehicle arrivalLane="1" depart="117.159212153" departLane="1" id="v118" route="route0" type="Car" /><vehicle arrivalLane="0" depart="120.87548504" departLane="0" id="v119" route="route0" type="Car" /><vehicle arrivalLane="1" depart="121.94946339" departLane="1" id="v120" route="route0" type="Car" /><vehicle arrivalLane="0" depart="124.058611396" departLane="0" id="v121" route="route0" type="Car" /><vehicle arrivalLane="1" depart="125.397247449" departLane="1" id="v122" route="route0" type="Car" /><vehicle arrivalLane="1" depart="125.429779971" departLane="1" id="v123" route="route0" type="Car" /><vehicle arrivalLane="0" depart="125.497723394" departLane="0" id="v124" route="route0" type="Car" /><vehicle arrivalLane="1" depart="128.408924695" departLane="1" id="v125" route="route0" type="Car" /><vehicle arrivalLane="0" depart="129.130975711" departLane="0" id="v126" route="route0" type="Car" /><vehicle arrivalLane="1" depart="133.693753619" departLane="1" id="v127" route="route0" type="Car" /><vehicle arrivalLane="1" depart="134.719373662" departLane="1" id="v128" route="route0" type="Car" /><vehicle arrivalLane="0" depart="135.397614102" departLane="0" id="v129" route="route0" type="Car" /><vehicle arrivalLane="0" depart="135.838227379" departLane="0" id="v130" route="route0" type="Car" /><vehicle arrivalLane="1" depart="136.874485758" departLane="1" id="v131" route="route0" type="Car" /><vehicle arrivalLane="0" depart="137.25458708" departLane="0" id="v132" route="route0" type="Car" /><vehicle arrivalLane="0" depart="140.923206161" departLane="0" id="v133" route="route0" type="Car" /><vehicle arrivalLane="1" depart="141.148240716" departLane="1" id="v134" route="route0" type="Car" /><vehicle arrivalLane="1" depart="142.788008971" departLane="1" id="v135" route="route0" type="Car" /><vehicle arrivalLane="0" depart="143.563460893" departLane="0" id="v136" route="route0" type="Car" /><vehicle arrivalLane="1" depart="144.914829997" departLane="1" id="v137" route="route0" type="Car" /><vehicle arrivalLane="1" depart="144.949067098" departLane="1" id="v138" route="route0" type="Car" /><vehicle arrivalLane="1" depart="144.979876769" departLane="1" id="v139" route="route0" type="Car" /><vehicle arrivalLane="0" depart="145.753658925" departLane="0" id="v140" route="route0" type="Car" /><vehicle arrivalLane="1" depart="147.236954755" departLane="1" id="v141" route="route0" type="Car" /><vehicle arrivalLane="1" depart="148.300933214" departLane="1" id="v142" route="route0" type="Car" /><vehicle arrivalLane="1" depart="151.584976651" departLane="1" id="v143" route="route0" type="Car" /><vehicle arrivalLane="1" depart="152.541367519" departLane="1" id="v144" route="route0" type="Car" /><vehicle arrivalLane="0" depart="155.135428705" departLane="0" id="v145" route="route0" type="Car" /><vehicle arrivalLane="0" depart="156.401501687" departLane="0" id="v146" route="route0" type="Car" /><vehicle arrivalLane="1" depart="156.410942872" departLane="1" id="v147" route="route0" type="Car" /><vehicle arrivalLane="1" depart="157.409919298" departLane="1" id="v148" route="route0" type="Car" /><vehicle arrivalLane="0" depart="158.469576668" departLane="0" id="v149" route="route0" type="Car" /><vehicle arrivalLane="0" depart="159.727786788" departLane="0" id="v150" route="route0" type="Car" /><vehicle arrivalLane="1" depart="159.978878838" departLane="1" id="v151" route="route0" type="Car" /><vehicle arrivalLane="0" depart="160.121823391" departLane="0" id="v152" route="route0" type="Car" /><vehicle arrivalLane="0" depart="160.298596751" departLane="0" id="v153" route="route0" type="Car" /><vehicle arrivalLane="0" depart="160.729365622" departLane="0" id="v154" route="route0" type="Car" /><vehicle arrivalLane="1" depart="161.238956656" departLane="1" id="v155" route="route0" type="Car" /><vehicle arrivalLane="1" depart="162.02395695" departLane="1" id="v156" route="route0" type="Car" /><vehicle arrivalLane="0" depart="164.188825026" departLane="0" id="v157" route="route0" type="Car" /><vehicle arrivalLane="0" depart="167.774157173" departLane="0" id="v158" route="route0" type="Car" /><vehicle arrivalLane="1" depart="167.788040733" departLane="1" id="v159" route="route0" type="Car" /><vehicle arrivalLane="0" depart="168.09418788" departLane="0" id="v160" route="route0" type="Car" /><vehicle arrivalLane="1" depart="168.790375016" departLane="1" id="v161" route="route0" type="Car" /><vehicle arrivalLane="0" depart="169.117472071" departLane="0" id="v162" route="route0" type="Car" /><vehicle arrivalLane="0" depart="169.754849462" departLane="0" id="v163" route="route0" type="Car" /><vehicle arrivalLane="1" depart="171.435568037" departLane="1" id="v164" route="route0" type="Car" /><vehicle arrivalLane="1" depart="172.34178047" departLane="1" id="v165" route="route0" type="Car" /><vehicle arrivalLane="0" depart="174.306896135" departLane="0" id="v166" route="route0" type="Car" /><vehicle arrivalLane="1" depart="174.811781311" departLane="1" id="v167" route="route0" type="Car" /><vehicle arrivalLane="0" depart="175.065595232" departLane="0" id="v168" route="route0" type="Car" /><vehicle arrivalLane="1" depart="175.090109032" departLane="1" id="v169" route="route0" type="Car" /><vehicle arrivalLane="1" depart="175.166690252" departLane="1" id="v170" route="route0" type="Car" /><vehicle arrivalLane="1" depart="175.307166453" departLane="1" id="v171" route="route0" type="Car" /><vehicle arrivalLane="0" depart="175.670370527" departLane="0" id="v172" route="route0" type="Car" /><vehicle arrivalLane="1" depart="176.61586324" departLane="1" id="v173" route="route0" type="Car" /><vehicle arrivalLane="0" depart="177.051370383" departLane="0" id="v174" route="route0" type="Car" /><vehicle arrivalLane="1" depart="177.58317575" departLane="1" id="v175" route="route0" type="Car" /><vehicle arrivalLane="0" depart="177.674774449" departLane="0" id="v176" route="route0" type="Car" /><vehicle arrivalLane="1" depart="180.241902219" departLane="1" id="v177" route="route0" type="Car" /><vehicle arrivalLane="1" depart="180.259532923" departLane="1" id="v178" route="route0" type="Car" /><vehicle arrivalLane="0" depart="180.484124451" departLane="0" id="v179" route="route0" type="Car" /><vehicle arrivalLane="1" depart="180.832828324" departLane="1" id="v180" route="route0" type="Car" /><vehicle arrivalLane="0" depart="181.086334658" departLane="0" id="v181" route="route0" type="Car" /><vehicle arrivalLane="0" depart="184.465319998" departLane="0" id="v182" route="route0" type="Car" /><vehicle arrivalLane="0" depart="185.396801221" departLane="0" id="v183" route="route0" type="Car" /><vehicle arrivalLane="1" depart="185.65752997" departLane="1" id="v184" route="route0" type="Car" /><vehicle arrivalLane="1" depart="187.696839888" departLane="1" id="v185" route="route0" type="Car" /><vehicle arrivalLane="1" depart="188.066426294" departLane="1" id="v186" route="route0" type="Car" /><vehicle arrivalLane="0" depart="188.455503167" departLane="0" id="v187" route="route0" type="Car" /><vehicle arrivalLane="1" depart="189.792805497" departLane="1" id="v188" route="route0" type="Car" /><vehicle arrivalLane="0" depart="190.698161478" departLane="0" id="v189" route="route0" type="Car" /><vehicle arrivalLane="1" depart="191.846409797" departLane="1" id="v190" route="route0" type="Car" /><vehicle arrivalLane="1" depart="192.16408183" departLane="1" id="v191" route="route0" type="Car" /><vehicle arrivalLane="1" depart="194.019063149" departLane="1" id="v192" route="route0" type="Car" /><vehicle arrivalLane="0" depart="194.803904674" departLane="0" id="v193" route="route0" type="Car" /><vehicle arrivalLane="0" depart="194.943680777" departLane="0" id="v194" route="route0" type="Car" /><vehicle arrivalLane="0" depart="195.167145737" departLane="0" id="v195" route="route0" type="Car" /><vehicle arrivalLane="0" depart="197.910774405" departLane="0" id="v196" route="route0" type="Car" /><vehicle arrivalLane="1" depart="199.225807262" departLane="1" id="v197" route="route0" type="Car" /><vehicle arrivalLane="0" depart="199.280943436" departLane="0" id="v198" route="route0" type="Car" /><vehicle arrivalLane="1" depart="200.586116099" departLane="1" id="v199" route="route0" type="Car" /><vehicle arrivalLane="0" depart="200.960210748" departLane="0" id="v200" route="route0" type="Car" /><vehicle arrivalLane="1" depart="202.491389683" departLane="1" id="v201" route="route0" type="Car" /><vehicle arrivalLane="0" depart="204.073110328" departLane="0" id="v202" route="route0" type="Car" /><vehicle arrivalLane="1" depart="205.256882541" departLane="1" id="v203" route="route0" type="Car" /><vehicle arrivalLane="1" depart="205.507086482" departLane="1" id="v204" route="route0" type="Car" /><vehicle arrivalLane="0" depart="206.630713194" departLane="0" id="v205" route="route0" type="Car" /><vehicle arrivalLane="1" depart="210.15321107" departLane="1" id="v206" route="route0" type="Car" /><vehicle arrivalLane="0" depart="212.534966388" departLane="0" id="v207" route="route0" type="Car" /><vehicle arrivalLane="0" depart="212.833985395" departLane="0" id="v208" route="route0" type="Car" /><vehicle arrivalLane="1" depart="214.101857369" departLane="1" id="v209" route="route0" type="Car" /><vehicle arrivalLane="0" depart="215.640088608" departLane="0" id="v210" route="route0" type="Car" /><vehicle arrivalLane="1" depart="217.172766863" departLane="1" id="v211" route="route0" type="Car" /><vehicle arrivalLane="0" depart="217.623032846" departLane="0" id="v212" route="route0" type="Car" /><vehicle arrivalLane="1" depart="217.838291608" departLane="1" id="v213" route="route0" type="Car" /><vehicle arrivalLane="0" depart="218.497240523" departLane="0" id="v214" route="route0" type="Car" /><vehicle arrivalLane="1" depart="218.524741418" departLane="1" id="v215" route="route0" type="Car" /><vehicle arrivalLane="1" depart="218.530624421" departLane="1" id="v216" route="route0" type="Car" /><vehicle arrivalLane="0" depart="220.621843714" departLane="0" id="v217" route="route0" type="Car" /><vehicle arrivalLane="0" depart="221.91469894" departLane="0" id="v218" route="route0" type="Car" /><vehicle arrivalLane="1" depart="222.91931183" departLane="1" id="v219" route="route0" type="Car" /><vehicle arrivalLane="0" depart="226.53350293" departLane="0" id="v220" route="route0" type="Car" /><vehicle arrivalLane="1" depart="226.630819318" departLane="1" id="v221" route="route0" type="Car" /><vehicle arrivalLane="1" depart="228.560053988" departLane="1" id="v222" route="route0" type="Car" /><vehicle arrivalLane="0" depart="230.000472513" departLane="0" id="v223" route="route0" type="Car" /><vehicle arrivalLane="1" depart="230.030827364" departLane="1" id="v224" route="route0" type="Car" /><vehicle arrivalLane="1" depart="230.722070934" departLane="1" id="v225" route="route0" type="Car" /><vehicle arrivalLane="0" depart="232.834849071" departLane="0" id="v226" route="route0" type="Car" /><vehicle arrivalLane="1" depart="233.80900052" departLane="1" id="v227" route="route0" type="Car" /><vehicle arrivalLane="0" depart="235.100441123" departLane="0" id="v228" route="route0" type="Car" /><vehicle arrivalLane="1" depart="237.162721651" departLane="1" id="v229" route="route0" type="Car" /><vehicle arrivalLane="0" depart="237.849874472" departLane="0" id="v230" route="route0" type="Car" /><vehicle arrivalLane="1" depart="238.653520517" departLane="1" id="v231" route="route0" type="Car" /><vehicle arrivalLane="0" depart="239.306277567" departLane="0" id="v232" route="route0" type="Car" /><vehicle arrivalLane="1" depart="239.701569379" departLane="1" id="v233" route="route0" type="Car" /><vehicle arrivalLane="0" depart="240.425178479" departLane="0" id="v234" route="route0" type="Car" /><vehicle arrivalLane="0" depart="240.444232057" departLane="0" id="v235" route="route0" type="Car" /><vehicle arrivalLane="1" depart="240.619584083" departLane="1" id="v236" route="route0" type="Car" /><vehicle arrivalLane="1" depart="240.831950299" departLane="1" id="v237" route="route0" type="Car" /><vehicle arrivalLane="0" depart="242.405431392" departLane="0" id="v238" route="route0" type="Car" /><vehicle arrivalLane="1" depart="243.511223748" departLane="1" id="v239" route="route0" type="Car" /><vehicle arrivalLane="1" depart="244.121738186" departLane="1" id="v240" route="route0" type="Car" /><vehicle arrivalLane="0" depart="244.820094551" departLane="0" id="v241" route="route0" type="Car" /><vehicle arrivalLane="1" depart="245.441203457" departLane="1" id="v242" route="route0" type="Car" /><vehicle arrivalLane="0" depart="246.826274006" departLane="0" id="v243" route="route0" type="Car" /><vehicle arrivalLane="1" depart="248.098392992" departLane="1" id="v244" route="route0" type="Car" /><vehicle arrivalLane="1" depart="248.946528724" departLane="1" id="v245" route="route0" type="Car" /><vehicle arrivalLane="0" depart="249.158917384" departLane="0" id="v246" route="route0" type="Car" /><vehicle arrivalLane="0" depart="249.281086187" departLane="0" id="v247" route="route0" type="Car" /><vehicle arrivalLane="0" depart="249.483708279" departLane="0" id="v248" route="route0" type="Car" /><vehicle arrivalLane="1" depart="249.489955363" departLane="1" id="v249" route="route0" type="Car" /><vehicle arrivalLane="1" depart="250.1256402" departLane="1" id="v250" route="route0" type="Car" /><vehicle arrivalLane="0" depart="250.819616148" departLane="0" id="v251" route="route0" type="Car" /><vehicle arrivalLane="0" depart="251.437330851" departLane="0" id="v252" route="route0" type="Car" /><vehicle arrivalLane="1" depart="253.090021348" departLane="1" id="v253" route="route0" type="Car" /><vehicle arrivalLane="0" depart="255.080859845" departLane="0" id="v254" route="route0" type="Car" /><vehicle arrivalLane="0" depart="255.564924556" departLane="0" id="v255" route="route0" type="Car" /><vehicle arrivalLane="0" depart="256.286685364" departLane="0" id="v256" route="route0" type="Car" /><vehicle arrivalLane="1" depart="257.467230905" departLane="1" id="v257" route="route0" type="Car" /><vehicle arrivalLane="0" depart="259.035282955" departLane="0" id="v258" route="route0" type="Car" /><vehicle arrivalLane="0" depart="259.68009112" departLane="0" id="v259" route="route0" type="Car" /><vehicle arrivalLane="1" depart="261.484473797" departLane="1" id="v260" route="route0" type="Car" /><vehicle arrivalLane="1" depart="263.451052257" departLane="1" id="v261" route="route0" type="Car" /><vehicle arrivalLane="0" depart="264.275690878" departLane="0" id="v262" route="route0" type="Car" /><vehicle arrivalLane="1" depart="264.639821852" departLane="1" id="v263" route="route0" type="Car" /><vehicle arrivalLane="1" depart="265.150097385" departLane="1" id="v264" route="route0" type="Car" /><vehicle arrivalLane="1" depart="265.893887787" departLane="1" id="v265" route="route0" type="Car" /><vehicle arrivalLane="0" depart="267.240712478" departLane="0" id="v266" route="route0" type="Car" /><vehicle arrivalLane="1" depart="271.691647705" departLane="1" id="v267" route="route0" type="Car" /><vehicle arrivalLane="1" depart="273.31592783" departLane="1" id="v268" route="route0" type="Car" /><vehicle arrivalLane="0" depart="273.827888542" departLane="0" id="v269" route="route0" type="Car" /><vehicle arrivalLane="0" depart="274.003082236" departLane="0" id="v270" route="route0" type="Car" /><vehicle arrivalLane="0" depart="274.239786113" departLane="0" id="v271" route="route0" type="Car" /><vehicle arrivalLane="0" depart="274.343385253" departLane="0" id="v272" route="route0" type="Car" /><vehicle arrivalLane="0" depart="275.017668107" departLane="0" id="v273" route="route0" type="Car" /><vehicle arrivalLane="1" depart="275.362077405" departLane="1" id="v274" route="route0" type="Car" /><vehicle arrivalLane="0" depart="276.397544654" departLane="0" id="v275" route="route0" type="Car" /><vehicle arrivalLane="1" depart="276.465796296" departLane="1" id="v276" route="route0" type="Car" /><vehicle arrivalLane="0" depart="276.651229585" departLane="0" id="v277" route="route0" type="Car" /><vehicle arrivalLane="1" depart="278.080683143" departLane="1" id="v278" route="route0" type="Car" /><vehicle arrivalLane="0" depart="279.953620484" departLane="0" id="v279" route="route0" type="Car" /><vehicle arrivalLane="0" depart="280.125113852" departLane="0" id="v280" route="route0" type="Car" /><vehicle arrivalLane="0" depart="280.70717578" departLane="0" id="v281" route="route0" type="Car" /><vehicle arrivalLane="0" depart="282.161210157" departLane="0" id="v282" route="route0" type="Car" /><vehicle arrivalLane="1" depart="282.364277527" departLane="1" id="v283" route="route0" type="Car" /><vehicle arrivalLane="0" depart="282.906199271" departLane="0" id="v284" route="route0" type="Car" /><vehicle arrivalLane="0" depart="284.5348083" departLane="0" id="v285" route="route0" type="Car" /><vehicle arrivalLane="1" depart="285.494612296" departLane="1" id="v286" route="route0" type="Car" /><vehicle arrivalLane="1" depart="285.540106399" departLane="1" id="v287" route="route0" type="Car" /><vehicle arrivalLane="1" depart="295.875847332" departLane="1" id="v288" route="route0" type="Car" /><vehicle arrivalLane="1" depart="302.494868914" departLane="1" id="v289" route="route0" type="Car" /><vehicle arrivalLane="1" depart="306.507922155" departLane="1" id="v290" route="route0" type="Car" /><vehicle arrivalLane="1" depart="306.645209959" departLane="1" id="v291" route="route0" type="Car" /><vehicle arrivalLane="1" depart="307.65654361" departLane="1" id="v292" route="route0" type="Car" /><vehicle arrivalLane="1" depart="310.328792293" departLane="1" id="v293" route="route0" type="Car" /><vehicle arrivalLane="1" depart="312.577488526" departLane="1" id="v294" route="route0" 