<?xml version="1.0" encoding="UTF-8"?>

<!-- generated on 8/29/2017 2:40:23 PM by Netedit Version 0.25.0
<?xml version="1.0" encoding="UTF-8"?>

<configuration xmlns:xsi="http://www.w3.org/2001/XMLSchema-instance" xsi:noNamespaceSchemaLocation="http://sumo.dlr.de/xsd/netedit.exeConfiguration.xsd">

    <output>
        <output-file value="D:\Aca\FYP\Softwares\sumo-0.29.0\Work\viptest1\viptest1.net.xml"/>
    </output>

    <processing>
        <no-turnarounds value="true"/>
        <offset.disable-normalization value="true"/>
    </processing>

</configuration>
-->

<net version="0.25" xmlns:xsi="http://www.w3.org/2001/XMLSchema-instance" xsi:noNamespaceSchemaLocation="http://sumo.dlr.de/xsd/net_file.xsd">

    <location netOffset="0.00,0.00" convBoundary="0.00,0.00,500.00,0.00" origBoundary="10000000000.00,10000000000.00,-10000000000.00,-10000000000.00" projParameter="!"/>

    <edge id="1to2" from="1" to="2" priority="1">
        <lane id="1to2_0" index="0" speed="20" length="500.00" shape="0.00,-4.95 500.00,-4.95"/>
        <lane id="1to2_1" index="1" speed="20" length="500.00" shape="0.00,-1.65 500.00,-1.65"/>
    </edge>

    <junction id="1" type="unregulated" x="0.00" y="0.00" incLanes="" intLanes="" shape="0.00,-0.05 0.00,-6.55"/>
    <junction id="2" type="unregulated" x="500.00" y="0.00" incLanes="1to2_0 1to2_1" intLanes="" shape="500.00,-6.55 500.00,-0.05"/>

</net>
