<routes><vType accel="2.9" decel="7.5" id="Car" length="4.3" maxSpeed="27.78" minGap="-1" sigma="0.0" tau="0" /><vType accel="2.9" decel="7.5" id="CarVIP" length="6.5" maxSpeed="27.78" minGap="-1" sigma="0.0" tau="0" /><route edges="1to2" id="route0" /><vehicle arrivalLane="0" color="green" depart="1.73364111288" departLane="0" id="0" route="route0" type="Car" /><vehicle arrivalLane="1" color="green" depart="1.73364111288" departLane="1" id="1" route="route0" type="Car" /><vehicle arrivalLane="1" color="green" depart="2.16043915079" departLane="1" id="2" route="route0" type="Car" /><vehicle arrivalLane="1" color="green" depart="2.33875254825" departLane="1" id="3" route="route0" type="Car" /><vehicle arrivalLane="1" color="green" depart="2.4510856322" departLane="1" id="4" route="route0" type="Car" /><vehicle arrivalLane="0" color="green" depart="4.61297472405" departLane="0" id="5" route="route0" type="Car" /><vehicle arrivalLane="0" color="green" depart="4.61297472405" departLane="0" id="6" route="route0" type="Car" /><vehicle arrivalLane="0" color="green" depart="4.61297472405" departLane="0" id="7" route="route0" type="Car" /><vehicle arrivalLane="1" color="green" depart="4.61297472405" departLane="1" id="8" route="route0" type="Car" /><vehicle arrivalLane="1" color="green" depart="5.60994167663" departLane="1" id="9" route="route0" type="Car" /><vehicle arrivalLane="1" color="green" depart="5.91517152757" departLane="1" id="10" route="route0" type="Car" /><vehicle arrivalLane="1" color="green" depart="6.52172971846" departLane="1" id="11" route="route0" type="Car" /><vehicle arrivalLane="1" color="green" depart="9.33824719261" departLane="1" id="12" route="route0" type="Car" /><vehicle arrivalLane="1" color="green" depart="10.7404083781" departLane="1" id="13" route="route0" type="Car" /><vehicle arrivalLane="0" color="green" depart="13.0154080828" departLane="0" id="14" route="route0" type="Car" /><vehicle arrivalLane="1" color="green" depart="13.0154080828" departLane="1" id="15" route="route0" type="Car" /><vehicle arrivalLane="0" color="green" depart="16.3731556641" departLane="0" id="16" route="route0" type="Car" /><vehicle arrivalLane="0" color="green" depart="16.3731556641" departLane="0" id="17" route="route0" type="Car" /><vehicle arrivalLane="1" color="green" depart="16.3731556641" departLane="1" id="18" route="route0" type="Car" /><vehicle arrivalLane="1" color="green" depart="16.8838417202" departLane="1" id="19" route="route0" type="Car" /><vehicle arrivalLane="1" color="green" depart="16.9704583404" departLane="1" id="20" route="route0" type="Car" /><vehicle arrivalLane="1" color="green" depart="18.315257737" departLane="1" id="21" route="route0" type="Car" /><vehicle arrivalLane="0" color="green" depart="19.5087517473" departLane="0" id="22" route="route0" type="Car" /><vehicle arrivalLane="1" color="green" depart="19.5087517473" departLane="1" id="23" route="route0" type="Car" /><vehicle arrivalLane="1" color="green" depart="21.2043515401" departLane="1" id="24" route="route0" type="Car" /><vehicle arrivalLane="0" color="green" depart="22.9082452125" departLane="0" id="25" route="route0" type="Car" /><vehicle arrivalLane="0" color="green" depart="22.9082452125" departLane="0" id="26" route="route0" type="Car" /><vehicle arrivalLane="1" color="green" depart="22.9082452125" departLane="1" id="27" route="route0" type="Car" /><vehicle arrivalLane="0" color="green" depart="23.8724153464" departLane="0" id="28" route="route0" type="Car" /><vehicle arrivalLane="0" color="green" depart="23.8724153464" departLane="0" id="29" route="route0" type="Car" /><vehicle arrivalLane="1" color="green" depart="23.8724153464" departLane="1" id="30" route="route0" type="Car" /><vehicle arrivalLane="0" color="green" depart="29.3043850733" departLane="0" id="31" route="route0" type="Car" /><vehicle arrivalLane="0" color="green" depart="29.3043850733" departLane="0" id="32" route="route0" type="Car" /><vehicle arrivalLane="0" color="green" depart="29.3043850733" departLane="0" id="33" route="route0" type="Car" /><vehicle arrivalLane="0" color="green" depart="29.3043850733" departLane="0" id="34" route="route0" type="Car" /><vehicle arrivalLane="1" color="green" depart="29.3043850733" departLane="1" id="35" route="route0" type="Car" /><vehicle arrivalLane="0" color="green" depart="34.1381367869" departLane="0" id="36" route="route0" type="Car" /><vehicle arrivalLane="0" color="green" depart="34.1381367869" departLane="0" id="37" route="route0" type="Car" /><vehicle arrivalLane="1" color="green" depart="34.1381367869" departLane="1" id="38" route="route0" type="Car" /><vehicle arrivalLane="1" color="green" depart="35.825877718" departLane="1" id="39" route="route0" type="Car" /><vehicle arrivalLane="1" color="green" depart="36.3434081937" departLane="1" id="40" route="route0" type="Car" /><vehicle arrivalLane="0" color="green" depart="42.4812440573" departLane="0" id="41" route="route0" type="Car" /><vehicle arrivalLane="0" color="green" depart="42.4812440573" departLane="0" id="42" route="route0" type="Car" /><vehicle arrivalLane="0" color="green" depart="42.4812440573" departLane="0" id="43" route="route0" type="Car" /><vehicle arrivalLane="0" color="green" depart="42.4812440573" departLane="0" id="44" route="route0" type="Car" /><vehicle arrivalLane="0" color="green" depart="42.4812440573" departLane="0" id="45" route="route0" type="Car" /><vehicle arrivalLane="1" color="green" depart="42.4812440573" departLane="1" id="46" route="route0" type="Car" /><vehicle arrivalLane="0" color="green" depart="45.7687052851" departLane="0" id="47" route="route0" type="Car" /><vehicle arrivalLane="1" color="green" depart="45.7687052851" departLane="1" id="48" route="route0" type="Car" /><vehicle arrivalLane="0" color="green" depart="49.4006161227" departLane="0" id="49" route="route0" type="Car" /><vehicle arrivalLane="0" color="green" depart="49.4006161227" departLane="0" id="50" route="route0" type="Car" /><vehicle arrivalLane="0" color="green" depart="49.4006161227" departLane="0" id="51" route="route0" type="Car" /><vehicle arrivalLane="0" color="green" depart="49.4006161227" departLane="0" id="52" route="route0" type="Car" /><vehicle arrivalLane="0" color="green" depart="49.4006161227" departLane="0" id="53" route="route0" type="Car" /><vehicle arrivalLane="1" color="green" depart="49.4006161227" departLane="1" id="54" route="route0" type="Car" /><vehicle arrivalLane="0" color="green" depart="51.1097931539" departLane="0" id="55" route="route0" type="Car" /><vehicle arrivalLane="0" color="green" depart="51.1097931539" departLane="0" id="56" route="route0" type="Car" /><vehicle arrivalLane="1" color="green" depart="51.1097931539" departLane="1" id="57" route="route0" type="Car" /><vehicle arrivalLane="0" color="green" depart="52.7559948653" departLane="0" id="58" route="route0" type="Car" /><vehicle arrivalLane="1" color="green" depart="52.7559948653" departLane="1" id="59" route="route0" type="Car" /><vehicle arrivalLane="0" color="green" depart="56.196184546" departLane="0" id="60" route="route0" type="Car" /><vehicle arrivalLane="1" color="green" depart="56.196184546" departLane="1" id="61" route="route0" type="Car" /><vehicle arrivalLane="0" color="green" depart="65.1589529645" departLane="0" id="62" route="route0" type="Car" /><vehicle arrivalLane="0" color="green" depart="65.1589529645" departLane="0" id="63" route="route0" type="Car" /><vehicle arrivalLane="0" color="green" depart="65.1589529645" departLane="0" id="64" route="route0" type="Car" /><vehicle arrivalLane="0" color="green" depart="65.1589529645" departLane="0" id="65" route="route0" type="Car" /><vehicle arrivalLane="0" color="green" depart="65.1589529645" departLane="0" id="66" route="route0" type="Car" /><vehicle arrivalLane="0" color="green" depart="65.1589529645" departLane="0" id="67" route="route0" type="Car" /><vehicle arrivalLane="0" color="green" depart="65.1589529645" departLane="0" id="68" route="route0" type="Car" /><vehicle arrivalLane="0" color="green" depart="65.1589529645" departLane="0" id="69" route="route0" type="Car" /><vehicle arrivalLane="1" color="green" depart="65.1589529645" departLane="1" id="70" route="route0" type="Car" /><vehicle arrivalLane="0" color="green" depart="70.4003563336" departLane="0" id="71" route="route0" type="Car" /><vehicle arrivalLane="0" color="green" depart="70.4003563336" departLane="0" id="72" route="route0" type="Car" /><vehicle arrivalLane="0" color="green" depart="70.4003563336" departLane="0" id="73" route="route0" type="Car" /><vehicle arrivalLane="1" color="green" depart="70.4003563336" departLane="1" id="74" route="route0" type="Car" /><vehicle arrivalLane="1" color="green" depart="70.6895691696" departLane="1" id="75" route="route0" type="Car" /><vehicle arrivalLane="1" color="green" depart="71.1856372623" departLane="1" id="76" route="route0" type="Car" /><vehicle arrivalLane="1" color="green" depart="72.5514473358" departLane="1" id="77" route="route0" type="Car" /><vehicle arrivalLane="0" color="green" depart="74.7341712393" departLane="0" id="78" route="route0" type="Car" /><vehicle arrivalLane="1" color="green" depart="74.7341712393" departLane="1" id="79" route="route0" type="Car" /><vehicle arrivalLane="0" color="green" depart="78.6109471216" departLane="0" id="80" route="route0" type="Car" /><vehicle arrivalLane="0" color="green" depart="78.6109471216" departLane="0" id="81" route="route0" type="Car" /><vehicle arrivalLane="0" color="green" depart="78.6109471216" departLane="0" id="82" route="route0" type="Car" /><vehicle arrivalLane="1" color="green" depart="78.6109471216" departLane="1" id="83" route="route0" type="Car" /><vehicle arrivalLane="1" color="green" depart="81.9733089053" departLane="1" id="84" route="route0" type="Car" /><vehicle arrivalLane="1" color="green" depart="86.5696812567" departLane="1" id="85" route="route0" type="Car" /><vehicle arrivalLane="0" color="green" depart="91.5399355168" departLane="0" id="86" route="route0" type="Car" /><vehicle arrivalLane="0" color="green" depart="91.5399355168" departLane="0" id="87" route="route0" type="Car" /><vehicle arrivalLane="0" color="red" depart="91.5399355168" departLane="0" id="vip" route="route0" type="CarVIP" /><vehicle arrivalLane="1" color="green" depart="91.5399355168" departLane="1" id="89" route="route0" type="Car" /><vehicle arrivalLane="1" color="green" depart="91.8556767722" departLane="1" id="90" route="route0" type="Car" /><vehicle arrivalLane="0" color="green" depart="96.6767611363" departLane="0" id="91" route="route0" type="Car" /><vehicle arrivalLane="0" color="green" depart="96.6767611363" departLane="0" id="92" route="route0" type="Car" /><vehicle arrivalLane="1" color="green" depart="96.6767611363" departLane="1" id="93" route="route0" type="Car" /><vehicle arrivalLane="1" color="green" depart="97.0988286953" departLane="1" id="94" route="route0" type="Car" /><vehicle arrivalLane="1" color="green" depart="97.3164338428" departLane="1" id="95" route="route0" type="Car" /><vehicle arrivalLane="1" color="green" depart="97.3333328932" departLane="1" id="96" route="route0" type="Car" /><vehicle arrivalLane="1" color="green" depart="100.233372391" departLane="1" id="97" route="route0" type="Car" /><vehicle arrivalLane="1" color="green" depart="100.603677191" departLane="1" id="98" route="route0" type="Car" /><vehicle arrivalLane="0" color="green" depart="105.540817514" departLane="0" id="99" route="route0" type="Car" /><vehicle arrivalLane="0" color="green" depart="105.540817514" departLane="0" id="100" route="route0" type="Car" /><vehicle arrivalLane="0" color="green" depart="105.540817514" departLane="0" id="101" route="route0" type="Car" /><vehicle arrivalLane="0" color="green" depart="105.540817514" departLane="0" id="102" route="route0" type="Car" /><vehicle arrivalLane="0" color="green" depart="105.540817514" departLane="0" id="103" route="route0" type="Car" /><vehicle arrivalLane="0" color="green" depart="105.540817514" departLane="0" id="104" route="route0" type="Car" /><vehicle arrivalLane="1" color="green" depart="105.540817514" departLane="1" id="105" route="route0" type="Car" /><vehicle arrivalLane="0" color="green" depart="106.766130662" departLane="0" id="106" route="route0" type="Car" /><vehicle arrivalLane="0" color="green" depart="106.766130662" departLane="0" id="107" route="route0" type="Car" /><vehicle arrivalLane="0" color="green" depart="106.766130662" departLane="0" id="108" route="route0" type="Car" /><vehicle arrivalLane="1" color="green" depart="106.766130662" departLane="1" id="109" route="route0" type="Car" /><vehicle arrivalLane="1" color="green" depart="108.972744423" departLane="1" id="110" route="route0" type="Car" /><vehicle arrivalLane="0" color="green" depart="112.906399192" departLane="0" id="111" route="route0" type="Car" /><vehicle arrivalLane="1" color="green" depart="112.906399192" departLane="1" id="112" route="route0" type="Car" /><vehicle arrivalLane="1" color="green" depart="113.415809963" departLane="1" id="113" route="route0" type="Car" /><vehicle arrivalLane="0" color="green" depart="115.285871649" departLane="0" id="114" route="route0" type="Car" /><vehicle arrivalLane="1" color="green" depart="115.285871649" departLane="1" id="115" route="route0" type="Car" /><vehicle arrivalLane="0" color="green" depart="115.877419527" departLane="0" id="116" route="route0" type="Car" /><vehicle arrivalLane="1" color="green" depart="115.877419527" departLane="1" id="117" route="route0" type="Car" /><vehicle arrivalLane="0" color="green" depart="117.037109849" departLane="0" id="118" route="route0" type="Car" /><vehicle arrivalLane="0" color="green" depart="117.037109849" departLane="0" id="119" route="route0" type="Car" /><vehicle arrivalLane="1" color="green" depart="117.037109849" departLane="1" id="120" route="route0" type="Car" /><vehicle arrivalLane="0" color="green" depart="120.23480735" departLane="0" id="121" route="route0" type="Car" /><vehicle arrivalLane="0" color="green" depart="120.23480735" departLane="0" id="122" route="route0" type="Car" /><vehicle arrivalLane="0" color="green" depart="120.23480735" departLane="0" id="123" route="route0" type="Car" /><vehicle arrivalLane="0" color="green" depart="120.23480735" departLane="0" id="124" route="route0" type="Car" /><vehicle arrivalLane="1" color="green" depart="120.23480735" departLane="1" id="125" route="route0" type="Car" /><vehicle arrivalLane="0" color="green" depart="124.20602431" departLane="0" id="126" route="route0" type="Car" /><vehicle arrivalLane="0" color="green" depart="124.20602431" departLane="0" id="127" route="route0" type="Car" /><vehicle arrivalLane="1" color="green" depart="124.20602431" departLane="1" id="128" route="route0" type="Car" /><vehicle arrivalLane="0" color="green" depart="128.284620974" departLane="0" id="129" route="route0" type="Car" /><vehicle arrivalLane="0" color="green" depart="128.284620974" departLane="0" id="130" route="route0" type="Car" /><vehicle arrivalLane="0" color="green" depart="128.284620974" departLane="0" id="131" route="route0" type="Car" /><vehicle arrivalLane="0" color="green" depart="128.284620974" departLane="0" id="132" route="route0" type="Car" /><vehicle arrivalLane="1" color="green" depart="128.284620974" departLane="1" id="133" route="route0" type="Car" /><vehicle arrivalLane="1" color="green" depart="131.427556704" departLane="1" id="134" route="route0" type="Car" /><vehicle arrivalLane="0" color="green" depart="141.367449852" departLane="0" id="135" route="route0" type="Car" /><vehicle arrivalLane="0" color="green" depart="141.367449852" departLane="0" id="136" route="route0" type="Car" /><vehicle arrivalLane="0" color="green" depart="141.367449852" departLane="0" id="137" route="route0" type="Car" /><vehicle arrivalLane="0" color="green" depart="141.367449852" departLane="0" id="138" route="route0" type="Car" /><vehicle arrivalLane="0" color="green" depart="141.367449852" departLane="0" id="139" route="route0" type="Car" /><vehicle arrivalLane="1" color="green" depart="141.367449852" departLane="1" id="140" route="route0" type="Car" /><vehicle arrivalLane="1" color="green" depart="141.720229045" departLane="1" id="141" route="route0" type="Car" /><vehicle arrivalLane="0" color="green" depart="142.934473862" departLane="0" id="142" route="route0" type="Car" /><vehicle arrivalLane="1" color="green" depart="142.934473862" departLane="1" id="143" route="route0" type="Car" /><vehicle arrivalLane="1" color="green" depart="143.199340517" departLane="1" id="144" route="route0" type="Car" /><vehicle arrivalLane="1" color="green" depart="143.436168583" departLane="1" id="145" route="route0" type="Car" /><vehicle arrivalLane="1" color="green" depart="143.826575818" departLane="1" id="146" route="route0" type="Car" /><vehicle arrivalLane="1" color="green" depart="144.21279527" departLane="1" id="147" route="route0" type="Car" /><vehicle arrivalLane="0" color="green" depart="146.029139739" departLane="0" id="148" route="route0" type="Car" /><vehicle arrivalLane="1" color="green" depart="146.029139739" departLane="1" id="149" route="route0" type="Car" /><vehicle arrivalLane="1" color="green" depart="146.587906046" departLane="1" id="150" route="route0" type="Car" /><vehicle arrivalLane="1" color="green" depart="147.936713917" departLane="1" id="151" route="route0" type="Car" /><vehicle arrivalLane="1" color="green" depart="149.488922595" departLane="1" id="152" route="route0" type="Car" /><vehicle arrivalLane="0" color="green" depart="154.701403072" departLane="0" id="153" route="route0" type="Car" /><vehicle arrivalLane="0" color="green" depart="154.701403072" departLane="0" id="154" route="route0" type="Car" /><vehicle arrivalLane="0" color="green" depart="154.701403072" departLane="0" id="155" route="route0" type="Car" /><vehicle arrivalLane="1" color="green" depart="154.701403072" departLane="1" id="156" route="route0" type="Car" /><vehicle arrivalLane="1" color="green" depart="154.719371853" departLane="1" id="157" route="route0" type="Car" /><vehicle arrivalLane="0" color="green" depart="157.496604832" departLane="0" id="158" route="route0" type="Car" /><vehicle arrivalLane="0" color="green" depart="157.496604832" departLane="0" id="159" route="route0" type="Car" /><vehicle arrivalLane="0" color="green" depart="157.496604832" departLane="0" id="160" route="route0" type="Car" /><vehicle arrivalLane="0" color="green" depart="157.496604832" departLane="0" id="161" route="route0" type="Car" /><vehicle arrivalLane="0" color="green" depart="157.496604832" departLane="0" id="162" route="route0" type="Car" /><vehicle arrivalLane="1" color="green" depart="157.496604832" departLane="1" id="163" route="route0" type="Car" /><vehicle arrivalLane="0" color="green" depart="158.562594651" departLane="0" id="164" route="route0" type="Car" /><vehicle arrivalLane="1" color="green" depart="158.562594651" departLane="1" id="165" route="route0" type="Car" /><vehicle arrivalLane="0" color="green" depart="158.703953969" departLane="0" id="166" route="route0" type="Car" /><vehicle arrivalLane="1" color="green" depart="158.703953969" departLane="1" id="167" route="route0" type="Car" /><vehicle arrivalLane="1" color="green" depart="158.935176534" departLane="1" id="168" route="route0" type="Car" /><vehicle arrivalLane="1" color="green" depart="159.075675624" departLane="1" id="169" route="route0" type="Car" /><vehicle arrivalLane="1" color="green" depart="159.283398379" departLane="1" id="170" route="route0" type="Car" /><vehicle arrivalLane="0" color="green" depart="160.333960211" departLane="0" id="171" route="route0" type="Car" /><vehicle arrivalLane="0" color="green" depart="160.333960211" departLane="0" id="172" route="route0" type="Car" /><vehicle arrivalLane="1" color="green" depart="160.333960211" departLane="1" id="173" route="route0" type="Car" /><vehicle arrivalLane="1" color="green" depart="161.635822002" departLane="1" id="174" route="route0" type="Car" /><vehicle arrivalLane="0" color="green" depart="166.022352014" departLane="0" id="175" route="route0" type="Car" /><vehicle arrivalLane="0" color="green" depart="166.022352014" departLane="0" id="176" route="route0" type="Car" /><vehicle arrivalLane="1" color="green" depart="166.022352014" departLane="1" id="177" route="route0" type="Car" /><vehicle arrivalLane="1" color="green" depart="166.510242361" departLane="1" id="178" route="route0" type="Car" /><vehicle arrivalLane="0" color="green" depart="169.310930862" departLane="0" id="179" route="route0" type="Car" /><vehicle arrivalLane="0" color="green" depart="169.310930862" departLane="0" id="180" route="route0" type="Car" /><vehicle arrivalLane="1" color="green" depart="169.310930862" departLane="1" id="181" route="route0" type="Car" /><vehicle arrivalLane="1" color="green" depart="170.558009295" departLane="1" id="182" route="route0" type="Car" /><vehicle arrivalLane="1" color="green" depart="173.200617267" departLane="1" id="183" route="route0" type="Car" /><vehicle arrivalLane="1" color="green" depart="174.535090287" departLane="1" id="184" route="route0" type="Car" /><vehicle arrivalLane="1" color="green" depart="177.864830376" departLane="1" id="185" route="route0" type="Car" /><vehicle arrivalLane="1" color="green" depart="178.339088591" departLane="1" id="186" route="route0" type="Car" /><vehicle arrivalLane="1" color="green" depart="178.385937504" departLane="1" id="187" route="route0" type="Car" /><vehicle arrivalLane="1" color="green" depart="178.695504" departLane="1" id="188" route="route0" type="Car" /><vehicle arrivalLane="1" color="green" depart="182.567428106" departLane="1" id="189" route="route0" type="Car" /><vehicle arrivalLane="1" color="green" depart="183.661502802" departLane="1" id="190" route="route0" type="Car" /><vehicle arrivalLane="1" color="green" depart="186.791250507" departLane="1" id="191" route="route0" type="Car" /><vehicle arrivalLane="1" color="green" depart="190.712403734" departLane="1" id="192" route="route0" type="Car" /><vehicle arrivalLane="1" color="green" depart="192.348749564" departLane="1" id="193" route="route0" type="Car" /><vehicle arrivalLane="1" color="green" depart="192.411769668" departLane="1" id="194" route="route0" type="Car" /><vehicle arrivalLane="1" color="green" depart="194.09618052" departLane="1" id="195" route="route0" type="Car" /><vehicle arrivalLane="1" color="green" depart="194.558270693" departLane="1" id="196" route="route0" type="Car" /><vehicle arrivalLane="1" color="green" depart="195.423393961" departLane="1" id="197" route="route0" type="Car" /><vehicle arrivalLane="1" color="green" depart="196.140651401" departLane="1" id="198" route="route0" type="Car" /><vehicle arrivalLane="1" color="green" depart="197.973636918" departLane="1" id="199" route="route0" type="Car" /></routes>