<routes><vType accel="2.9" decel="7.5" id="Car" length="4.3" maxSpeed="27.78" minGap="-1" sigma="0.0" tau="0" /><vType accel="2.9" decel="7.5" id="CarVIP" length="6.5" maxSpeed="27.78" minGap="-1" sigma="0.0" tau="0" /><route edges="1to2" id="route0" /><vehicle arrivalLane="1" color="green" depart="0.153409007373" departLane="1" id="0" route="route0" type="Car" /><vehicle arrivalLane="1" color="green" depart="2.1787460401" departLane="1" id="1" route="route0" type="Car" /><vehicle arrivalLane="0" color="green" depart="8.45525162047" departLane="0" id="2" route="route0" type="Car" /><vehicle arrivalLane="0" color="green" depart="8.45525162047" departLane="0" id="3" route="route0" type="Car" /><vehicle arrivalLane="0" color="green" depart="8.45525162047" departLane="0" id="4" route="route0" type="Car" /><vehicle arrivalLane="0" color="green" depart="8.45525162047" departLane="0" id="5" route="route0" type="Car" /><vehicle arrivalLane="1" color="green" depart="8.45525162047" departLane="1" id="6" route="route0" type="Car" /><vehicle arrivalLane="1" color="green" depart="9.28683307002" departLane="1" id="7" route="route0" type="Car" /><vehicle arrivalLane="0" color="green" depart="12.6625178439" departLane="0" id="8" route="route0" type="Car" /><vehicle arrivalLane="0" color="green" depart="12.6625178439" departLane="0" id="9" route="route0" type="Car" /><vehicle arrivalLane="0" color="green" depart="12.6625178439" departLane="0" id="10" route="route0" type="Car" /><vehicle arrivalLane="1" color="green" depart="12.6625178439" departLane="1" id="11" route="route0" type="Car" /><vehicle arrivalLane="1" color="green" depart="15.09824808" departLane="1" id="12" route="route0" type="Car" /><vehicle arrivalLane="1" color="green" depart="17.2627207986" departLane="1" id="13" route="route0" type="Car" /><vehicle arrivalLane="0" color="green" depart="21.4027636882" departLane="0" id="14" route="route0" type="Car" /><vehicle arrivalLane="0" color="green" depart="21.4027636882" departLane="0" id="15" route="route0" type="Car" /><vehicle arrivalLane="0" color="green" depart="21.4027636882" departLane="0" id="16" route="route0" type="Car" /><vehicle arrivalLane="1" color="green" depart="21.4027636882" departLane="1" id="17" route="route0" type="Car" /><vehicle arrivalLane="1" color="green" depart="22.3568171434" departLane="1" id="18" route="route0" type="Car" /><vehicle arrivalLane="0" color="green" depart="22.8144609647" departLane="0" id="19" route="route0" type="Car" /><vehicle arrivalLane="1" color="green" depart="22.8144609647" departLane="1" id="20" route="route0" type="Car" /><vehicle arrivalLane="1" color="green" depart="26.1044375165" departLane="1" id="21" route="route0" type="Car" /><vehicle arrivalLane="1" color="green" depart="27.7097003523" departLane="1" id="22" route="route0" type="Car" /><vehicle arrivalLane="0" color="green" depart="35.0654321695" departLane="0" id="23" route="route0" type="Car" /><vehicle arrivalLane="0" color="green" depart="35.0654321695" departLane="0" id="24" route="route0" type="Car" /><vehicle arrivalLane="0" color="green" depart="35.0654321695" departLane="0" id="25" route="route0" type="Car" /><vehicle arrivalLane="0" color="green" depart="35.0654321695" departLane="0" id="26" route="route0" type="Car" /><vehicle arrivalLane="0" color="green" depart="35.0654321695" departLane="0" id="27" route="route0" type="Car" /><vehicle arrivalLane="1" color="green" depart="35.0654321695" departLane="1" id="28" route="route0" type="Car" /><vehicle arrivalLane="0" color="green" depart="35.7021874035" departLane="0" id="29" route="route0" type="Car" /><vehicle arrivalLane="1" color="green" depart="35.7021874035" departLane="1" id="30" route="route0" type="Car" /><vehicle arrivalLane="1" color="green" depart="37.4343813815" departLane="1" id="31" route="route0" type="Car" /><vehicle arrivalLane="1" color="green" depart="37.9986902706" departLane="1" id="32" route="route0" type="Car" /><vehicle arrivalLane="1" color="green" depart="38.381390822" departLane="1" id="33" route="route0" type="Car" /><vehicle arrivalLane="0" color="green" depart="43.1182168472" departLane="0" id="34" route="route0" type="Car" /><vehicle arrivalLane="0" color="green" depart="43.1182168472" departLane="0" id="35" route="route0" type="Car" /><vehicle arrivalLane="0" color="green" depart="43.1182168472" departLane="0" id="36" route="route0" type="Car" /><vehicle arrivalLane="1" color="green" depart="43.1182168472" departLane="1" id="37" route="route0" type="Car" /><vehicle arrivalLane="0" color="green" depart="46.1393967048" departLane="0" id="38" route="route0" type="Car" /><vehicle arrivalLane="1" color="green" depart="46.1393967048" departLane="1" id="39" route="route0" type="Car" /><vehicle arrivalLane="1" color="green" depart="46.5756245188" departLane="1" id="40" route="route0" type="Car" /><vehicle arrivalLane="1" color="green" depart="46.6619002555" departLane="1" id="41" route="route0" type="Car" /><vehicle arrivalLane="0" color="green" depart="56.3992754353" departLane="0" id="42" route="route0" type="Car" /><vehicle arrivalLane="0" color="green" depart="56.3992754353" departLane="0" id="43" route="route0" type="Car" /><vehicle arrivalLane="0" color="green" depart="56.3992754353" departLane="0" id="44" route="route0" type="Car" /><vehicle arrivalLane="0" color="green" depart="56.3992754353" departLane="0" id="45" route="route0" type="Car" /><vehicle arrivalLane="0" color="green" depart="56.3992754353" departLane="0" id="46" route="route0" type="Car" /><vehicle arrivalLane="0" color="green" depart="56.3992754353" departLane="0" id="47" route="route0" type="Car" /><vehicle arrivalLane="0" color="green" depart="56.3992754353" departLane="0" id="48" route="route0" type="Car" /><vehicle arrivalLane="0" color="green" depart="56.3992754353" departLane="0" id="49" route="route0" type="Car" /><vehicle arrivalLane="1" color="green" depart="56.3992754353" departLane="1" id="50" route="route0" type="Car" /><vehicle arrivalLane="0" color="green" depart="61.5833727812" departLane="0" id="51" route="route0" type="Car" /><vehicle arrivalLane="0" color="green" depart="61.5833727812" departLane="0" id="52" route="route0" type="Car" /><vehicle arrivalLane="0" color="green" depart="61.5833727812" departLane="0" id="53" route="route0" type="Car" /><vehicle arrivalLane="0" color="green" depart="61.5833727812" departLane="0" id="54" route="route0" type="Car" /><vehicle arrivalLane="1" color="green" depart="61.5833727812" departLane="1" id="55" route="route0" type="Car" /><vehicle arrivalLane="1" color="green" depart="61.5953340486" departLane="1" id="56" route="route0" type="Car" /><vehicle arrivalLane="0" color="green" depart="64.5899529146" departLane="0" id="57" route="route0" type="Car" /><vehicle arrivalLane="1" color="green" depart="64.5899529146" departLane="1" id="58" route="route0" type="Car" /><vehicle arrivalLane="1" color="green" depart="64.7643263513" departLane="1" id="59" route="route0" type="Car" /><vehicle arrivalLane="1" color="green" depart="66.2339140712" departLane="1" id="60" route="route0" type="Car" /><vehicle arrivalLane="0" color="green" depart="69.2940793864" departLane="0" id="61" route="route0" type="Car" /><vehicle arrivalLane="0" color="green" depart="69.2940793864" departLane="0" id="62" route="route0" type="Car" /><vehicle arrivalLane="0" color="green" depart="69.2940793864" departLane="0" id="63" route="route0" type="Car" /><vehicle arrivalLane="1" color="green" depart="69.2940793864" departLane="1" id="64" route="route0" type="Car" /><vehicle arrivalLane="0" color="green" depart="70.3382865475" departLane="0" id="65" route="route0" type="Car" /><vehicle arrivalLane="1" color="green" depart="70.3382865475" departLane="1" id="66" route="route0" type="Car" /><vehicle arrivalLane="1" color="green" depart="70.6945805059" departLane="1" id="67" route="route0" type="Car" /><vehicle arrivalLane="0" color="green" depart="73.4253957081" departLane="0" id="68" route="route0" type="Car" /><vehicle arrivalLane="0" color="green" depart="73.4253957081" departLane="0" id="69" route="route0" type="Car" /><vehicle arrivalLane="1" color="green" depart="73.4253957081" departLane="1" id="70" route="route0" type="Car" /><vehicle arrivalLane="1" color="green" depart="73.6181714594" departLane="1" id="71" route="route0" type="Car" /><vehicle arrivalLane="1" color="green" depart="73.9601933319" departLane="1" id="72" route="route0" type="Car" /><vehicle arrivalLane="1" color="green" depart="75.0234632461" departLane="1" id="73" route="route0" type="Car" /><vehicle arrivalLane="1" color="green" depart="75.7671907921" departLane="1" id="74" route="route0" type="Car" /><vehicle arrivalLane="0" color="green" depart="77.0425979611" departLane="0" id="75" route="route0" type="Car" /><vehicle arrivalLane="1" color="green" depart="77.0425979611" departLane="1" id="76" route="route0" type="Car" /><vehicle arrivalLane="1" color="green" depart="77.5619324653" departLane="1" id="77" route="route0" type="Car" /><vehicle arrivalLane="0" color="green" depart="78.9205556773" departLane="0" id="78" route="route0" type="Car" /><vehicle arrivalLane="0" color="green" depart="78.9205556773" departLane="0" id="79" route="route0" type="Car" /><vehicle arrivalLane="1" color="green" depart="78.9205556773" departLane="1" id="80" route="route0" type="Car" /><vehicle arrivalLane="1" color="green" depart="80.0125589139" departLane="1" id="81" route="route0" type="Car" /><vehicle arrivalLane="0" color="green" depart="82.5404604333" departLane="0" id="82" route="route0" type="Car" /><vehicle arrivalLane="1" color="green" depart="82.5404604333" departLane="1" id="83" route="route0" type="Car" /><vehicle arrivalLane="1" color="green" depart="82.9653987636" departLane="1" id="84" route="route0" type="Car" /><vehicle arrivalLane="0" color="green" depart="85.3053466817" departLane="0" id="85" route="route0" type="Car" /><vehicle arrivalLane="0" color="green" depart="85.3053466817" departLane="0" id="86" route="route0" type="Car" /><vehicle arrivalLane="1" color="green" depart="85.3053466817" departLane="1" id="87" route="route0" type="Car" /><vehicle arrivalLane="0" color="green" depart="90.5734299967" departLane="0" id="88" route="route0" type="Car" /><vehicle arrivalLane="0" color="green" depart="90.5734299967" departLane="0" id="89" route="route0" type="Car" /><vehicle arrivalLane="1" color="green" depart="90.5734299967" departLane="1" id="90" route="route0" type="Car" /><vehicle arrivalLane="0" color="green" depart="94.8023154286" departLane="0" id="91" route="route0" type="Car" /><vehicle arrivalLane="0" color="green" depart="94.8023154286" departLane="0" id="92" route="route0" type="Car" /><vehicle arrivalLane="0" color="red" depart="94.8023154286" departLane="0" id="vip" route="route0" type="CarVIP" /><vehicle arrivalLane="1" color="green" depart="94.8023154286" departLane="1" id="94" route="route0" type="Car" /><vehicle arrivalLane="1" color="green" depart="96.0920303907" departLane="1" id="95" route="route0" type="Car" /><vehicle arrivalLane="1" color="green" depart="96.5059389842" departLane="1" id="96" route="route0" type="Car" /><vehicle arrivalLane="1" color="green" depart="98.2439117216" departLane="1" id="97" route="route0" type="Car" /><vehicle arrivalLane="1" color="green" depart="101.610481572" departLane="1" id="98" route="route0" type="Car" /><vehicle arrivalLane="1" color="green" depart="106.41705651" departLane="1" id="99" route="route0" type="Car" /><vehicle arrivalLane="0" color="green" depart="111.58625921" departLane="0" id="100" route="route0" type="Car" /><vehicle arrivalLane="0" color="green" depart="111.58625921" departLane="0" id="101" route="route0" type="Car" /><vehicle arrivalLane="0" color="green" depart="111.58625921" departLane="0" id="102" route="route0" type="Car" /><vehicle arrivalLane="0" color="green" depart="111.58625921" departLane="0" id="103" route="route0" type="Car" /><vehicle arrivalLane="0" color="green" depart="111.58625921" departLane="0" id="104" route="route0" type="Car" /><vehicle arrivalLane="1" color="green" depart="111.58625921" departLane="1" id="105" route="route0" type="Car" /><vehicle arrivalLane="1" color="green" depart="111.707561069" departLane="1" id="106" route="route0" type="Car" /><vehicle arrivalLane="0" color="green" depart="113.374384477" departLane="0" id="107" route="route0" type="Car" /><vehicle arrivalLane="1" color="green" depart="113.374384477" departLane="1" id="108" route="route0" type="Car" /><vehicle arrivalLane="1" color="green" depart="113.56417736" departLane="1" id="109" route="route0" type="Car" /><vehicle arrivalLane="0" color="green" depart="114.166718136" departLane="0" id="110" route="route0" type="Car" /><vehicle arrivalLane="1" color="green" depart="114.166718136" departLane="1" id="111" route="route0" type="Car" /><vehicle arrivalLane="1" color="green" depart="115.378559788" departLane="1" id="112" route="route0" type="Car" /><vehicle arrivalLane="1" color="green" depart="117.38523335" departLane="1" id="113" route="route0" type="Car" /><vehicle arrivalLane="0" color="green" depart="117.929613153" departLane="0" id="114" route="route0" type="Car" /><vehicle arrivalLane="1" color="green" depart="117.929613153" departLane="1" id="115" route="route0" type="Car" /><vehicle arrivalLane="1" color="green" depart="118.063123722" departLane="1" id="116" route="route0" type="Car" /><vehicle arrivalLane="1" color="green" depart="118.66068504" departLane="1" id="117" route="route0" type="Car" /><vehicle arrivalLane="0" color="green" depart="121.92072962" departLane="0" id="118" route="route0" type="Car" /><vehicle arrivalLane="1" color="green" depart="121.92072962" departLane="1" id="119" route="route0" type="Car" /><vehicle arrivalLane="1" color="green" depart="122.25483705" departLane="1" id="120" route="route0" type="Car" /><vehicle arrivalLane="0" color="green" depart="125.421858044" departLane="0" id="121" route="route0" type="Car" /><vehicle arrivalLane="0" color="green" depart="125.421858044" departLane="0" id="122" route="route0" type="Car" /><vehicle arrivalLane="1" color="green" depart="125.421858044" departLane="1" id="123" route="route0" type="Car" /><vehicle arrivalLane="1" color="green" depart="125.611789784" departLane="1" id="124" route="route0" type="Car" /><vehicle arrivalLane="0" color="green" depart="129.366200739" departLane="0" id="125" route="route0" type="Car" /><vehicle arrivalLane="0" color="green" depart="129.366200739" departLane="0" id="126" route="route0" type="Car" /><vehicle arrivalLane="1" color="green" depart="129.366200739" departLane="1" id="127" route="route0" type="Car" /><vehicle arrivalLane="0" color="green" depart="136.298038621" departLane="0" id="128" route="route0" type="Car" /><vehicle arrivalLane="0" color="green" depart="136.298038621" departLane="0" id="129" route="route0" type="Car" /><vehicle arrivalLane="0" color="green" depart="136.298038621" departLane="0" id="130" route="route0" type="Car" /><vehicle arrivalLane="1" color="green" depart="136.298038621" departLane="1" id="131" route="route0" type="Car" /><vehicle arrivalLane="1" color="green" depart="137.006046266" departLane="1" id="132" route="route0" type="Car" /><vehicle arrivalLane="0" color="green" depart="139.886347181" departLane="0" id="133" route="route0" type="Car" /><vehicle arrivalLane="0" color="green" depart="139.886347181" departLane="0" id="134" route="route0" type="Car" /><vehicle arrivalLane="1" color="green" depart="139.886347181" departLane="1" id="135" route="route0" type="Car" /><vehicle arrivalLane="0" color="green" depart="144.165356998" departLane="0" id="136" route="route0" type="Car" /><vehicle arrivalLane="0" color="green" depart="144.165356998" departLane="0" id="137" route="route0" type="Car" /><vehicle arrivalLane="0" color="green" depart="144.165356998" departLane="0" id="138" route="route0" type="Car" /><vehicle arrivalLane="1" color="green" depart="144.165356998" departLane="1" id="139" route="route0" type="Car" /><vehicle arrivalLane="1" color="green" depart="145.550470843" departLane="1" id="140" route="route0" type="Car" /><vehicle arrivalLane="1" color="green" depart="146.336322714" departLane="1" id="141" route="route0" type="Car" /><vehicle arrivalLane="0" color="green" depart="152.240569847" departLane="0" id="142" route="route0" type="Car" /><vehicle arrivalLane="0" color="green" depart="152.240569847" departLane="0" id="143" route="route0" type="Car" /><vehicle arrivalLane="0" color="green" depart="152.240569847" departLane="0" id="144" route="route0" type="Car" /><vehicle arrivalLane="1" color="green" depart="152.240569847" departLane="1" id="145" route="route0" type="Car" /><vehicle arrivalLane="0" color="green" depart="160.44225082" departLane="0" id="146" route="route0" type="Car" /><vehicle arrivalLane="0" color="green" depart="160.44225082" departLane="0" id="147" route="route0" type="Car" /><vehicle arrivalLane="0" color="green" depart="160.44225082" departLane="0" id="148" route="route0" type="Car" /><vehicle arrivalLane="0" color="green" depart="160.44225082" departLane="0" id="149" route="route0" type="Car" /><vehicle arrivalLane="0" color="green" depart="160.44225082" departLane="0" id="150" route="route0" type="Car" /><vehicle arrivalLane="0" color="green" depart="160.44225082" departLane="0" id="151" route="route0" type="Car" /><vehicle arrivalLane="0" color="green" depart="160.44225082" departLane="0" id="152" route="route0" type="Car" /><vehicle arrivalLane="0" color="green" depart="160.44225082" departLane="0" id="153" route="route0" type="Car" /><vehicle arrivalLane="1" color="green" depart="160.44225082" departLane="1" id="154" route="route0" type="Car" /><vehicle arrivalLane="0" color="green" depart="163.801612085" departLane="0" id="155" route="route0" type="Car" /><vehicle arrivalLane="1" color="green" depart="163.801612085" departLane="1" id="156" route="route0" type="Car" /><vehicle arrivalLane="0" color="green" depart="169.889835198" departLane="0" id="157" route="route0" type="Car" /><vehicle arrivalLane="1" color="green" depart="169.889835198" departLane="1" id="158" route="route0" type="Car" /><vehicle arrivalLane="0" color="green" depart="172.031138727" departLane="0" id="159" route="route0" type="Car" /><vehicle arrivalLane="1" color="green" depart="172.031138727" departLane="1" id="160" route="route0" type="Car" /><vehicle arrivalLane="0" color="green" depart="174.002381499" departLane="0" id="161" route="route0" type="Car" /><vehicle arrivalLane="1" color="green" depart="174.002381499" departLane="1" id="162" route="route0" type="Car" /><vehicle arrivalLane="1" color="green" depart="174.637062167" departLane="1" id="163" route="route0" type="Car" /><vehicle arrivalLane="1" color="green" depart="174.915020617" departLane="1" id="164" route="route0" type="Car" /><vehicle arrivalLane="1" color="green" depart="174.956295701" departLane="1" id="165" route="route0" type="Car" /><vehicle arrivalLane="0" color="green" depart="180.143854666" departLane="0" id="166" route="route0" type="Car" /><vehicle arrivalLane="0" color="green" depart="180.143854666" departLane="0" id="167" route="route0" type="Car" /><vehicle arrivalLane="0" color="green" depart="180.143854666" departLane="0" id="168" route="route0" type="Car" /><vehicle arrivalLane="0" color="green" depart="180.143854666" departLane="0" id="169" route="route0" type="Car" /><vehicle arrivalLane="0" color="green" depart="180.143854666" departLane="0" id="170" route="route0" type="Car" /><vehicle arrivalLane="1" color="green" depart="180.143854666" departLane="1" id="171" route="route0" type="Car" /><vehicle arrivalLane="0" color="green" depart="185.313001375" departLane="0" id="172" route="route0" type="Car" /><vehicle arrivalLane="1" color="green" depart="185.313001375" departLane="1" id="173" route="route0" type="Car" /><vehicle arrivalLane="0" color="green" depart="185.402233049" departLane="0" id="174" route="route0" type="Car" /><vehicle arrivalLane="1" color="green" depart="185.402233049" departLane="1" id="175" route="route0" type="Car" /><vehicle arrivalLane="1" color="green" depart="186.815819014" departLane="1" id="176" route="route0" type="Car" /><vehicle arrivalLane="1" color="green" depart="189.939897102" departLane="1" id="177" route="route0" type="Car" /><vehicle arrivalLane="1" color="green" depart="190.505164035" departLane="1" id="178" route="route0" type="Car" /><vehicle arrivalLane="0" color="green" depart="197.193399093" departLane="0" id="179" route="route0" type="Car" /><vehicle arrivalLane="0" color="green" depart="197.193399093" departLane="0" id="180" route="route0" type="Car" /><vehicle arrivalLane="0" color="green" depart="197.193399093" departLane="0" id="181" route="route0" type="Car" /><vehicle arrivalLane="0" color="green" depart="197.193399093" departLane="0" id="182" route="route0" type="Car" /><vehicle arrivalLane="0" color="green" depart="197.193399093" departLane="0" id="183" route="route0" type="Car" /><vehicle arrivalLane="1" color="green" depart="197.193399093" departLane="1" id="184" route="route0" type="Car" /><vehicle arrivalLane="0" color="green" depart="202.684512072" departLane="0" id="185" route="route0" type="Car" /><vehicle arrivalLane="1" color="green" depart="202.684512072" departLane="1" id="186" route="route0" type="Car" /><vehicle arrivalLane="1" color="green" depart="207.199242206" departLane="1" id="187" route="route0" type="Car" /><vehicle arrivalLane="1" color="green" depart="210.603156702" departLane="1" id="188" route="route0" type="Car" /><vehicle arrivalLane="1" color="green" depart="211.100257549" departLane="1" id="189" route="route0" type="Car" /><vehicle arrivalLane="1" color="green" depart="211.182947575" departLane="1" id="190" route="route0" type="Car" /><vehicle arrivalLane="1" color="green" depart="212.657587626" departLane="1" id="191" route="route0" type="Car" /><vehicle arrivalLane="1" color="green" depart="212.733716642" departLane="1" id="192" route="route0" type="Car" /><vehicle arrivalLane="1" color="green" depart="212.977089235" departLane="1" id="193" route="route0" type="Car" /><vehicle arrivalLane="1" color="green" depart="214.220875883" departLane="1" id="194" route="route0" type="Car" /><vehicle arrivalLane="1" color="green" depart="222.154651591" departLane="1" id="195" route="route0" type="Car" /><vehicle arrivalLane="1" color="green" depart="224.529773355" departLane="1" id="196" route="route0" type="Car" /><vehicle arrivalLane="1" color="green" depart="226.851191355" departLane="1" id="197" route="route0" type="Car" /><vehicle arrivalLane="1" color="green" depart="227.521107943" departLane="1" id="198" route="route0" type="Car" /><vehicle arrivalLane="1" color="green" depart="229.940791205" departLane="1" id="199" route="route0" type="Car" /></routes>