<routes><vType accel="2.9" decel="7.5" id="Car" length="4.3" maxSpeed="27.78" minGap="-1" sigma="0.0" tau="0" /><vType accel="2.9" decel="7.5" id="CarVIP" length="6.5" maxSpeed="27.78" minGap="-1" sigma="0.0" tau="0" /><route edges="1to2" id="route0" /><vehicle arrivalLane="1" color="green" depart="1.17254248063" departLane="1" id="0" route="route0" type="Car" /><vehicle arrivalLane="0" color="green" depart="2.31898879422" departLane="0" id="1" route="route0" type="Car" /><vehicle arrivalLane="0" color="green" depart="2.31898879422" departLane="0" id="2" route="route0" type="Car" /><vehicle arrivalLane="0" color="green" depart="2.31898879422" departLane="0" id="3" route="route0" type="Car" /><vehicle arrivalLane="1" color="green" depart="2.31898879422" departLane="1" id="4" route="route0" type="Car" /><vehicle arrivalLane="1" color="green" depart="2.48608350781" departLane="1" id="5" route="route0" type="Car" /><vehicle arrivalLane="0" color="green" depart="5.09250801285" departLane="0" id="6" route="route0" type="Car" /><vehicle arrivalLane="0" color="green" depart="5.09250801285" departLane="0" id="7" route="route0" type="Car" /><vehicle arrivalLane="1" color="green" depart="5.09250801285" departLane="1" id="8" route="route0" type="Car" /><vehicle arrivalLane="1" color="green" depart="9.95531689463" departLane="1" id="9" route="route0" type="Car" /><vehicle arrivalLane="1" color="green" depart="10.3072756951" departLane="1" id="10" route="route0" type="Car" /><vehicle arrivalLane="1" color="green" depart="11.3997791146" departLane="1" id="11" route="route0" type="Car" /><vehicle arrivalLane="0" color="green" depart="13.8642170847" departLane="0" id="12" route="route0" type="Car" /><vehicle arrivalLane="0" color="green" depart="13.8642170847" departLane="0" id="13" route="route0" type="Car" /><vehicle arrivalLane="1" color="green" depart="13.8642170847" departLane="1" id="14" route="route0" type="Car" /><vehicle arrivalLane="1" color="green" depart="14.0978302157" departLane="1" id="15" route="route0" type="Car" /><vehicle arrivalLane="0" color="green" depart="16.8127638678" departLane="0" id="16" route="route0" type="Car" /><vehicle arrivalLane="0" color="green" depart="16.8127638678" departLane="0" id="17" route="route0" type="Car" /><vehicle arrivalLane="0" color="green" depart="16.8127638678" departLane="0" id="18" route="route0" type="Car" /><vehicle arrivalLane="1" color="green" depart="16.8127638678" departLane="1" id="19" route="route0" type="Car" /><vehicle arrivalLane="0" color="green" depart="17.5563055695" departLane="0" id="20" route="route0" type="Car" /><vehicle arrivalLane="1" color="green" depart="17.5563055695" departLane="1" id="21" route="route0" type="Car" /><vehicle arrivalLane="1" color="green" depart="17.8255246678" departLane="1" id="22" route="route0" type="Car" /><vehicle arrivalLane="0" color="green" depart="19.4433855863" departLane="0" id="23" route="route0" type="Car" /><vehicle arrivalLane="1" color="green" depart="19.4433855863" departLane="1" id="24" route="route0" type="Car" /><vehicle arrivalLane="1" color="green" depart="19.8524128652" departLane="1" id="25" route="route0" type="Car" /><vehicle arrivalLane="1" color="green" depart="22.9081596421" departLane="1" id="26" route="route0" type="Car" /><vehicle arrivalLane="1" color="green" depart="23.2172489908" departLane="1" id="27" route="route0" type="Car" /><vehicle arrivalLane="1" color="green" depart="24.2689603851" departLane="1" id="28" route="route0" type="Car" /><vehicle arrivalLane="0" color="green" depart="27.031167975" departLane="0" id="29" route="route0" type="Car" /><vehicle arrivalLane="0" color="green" depart="27.031167975" departLane="0" id="30" route="route0" type="Car" /><vehicle arrivalLane="0" color="green" depart="27.031167975" departLane="0" id="31" route="route0" type="Car" /><vehicle arrivalLane="1" color="green" depart="27.031167975" departLane="1" id="32" route="route0" type="Car" /><vehicle arrivalLane="0" color="green" depart="33.5289902691" departLane="0" id="33" route="route0" type="Car" /><vehicle arrivalLane="0" color="green" depart="33.5289902691" departLane="0" id="34" route="route0" type="Car" /><vehicle arrivalLane="0" color="green" depart="33.5289902691" departLane="0" id="35" route="route0" type="Car" /><vehicle arrivalLane="0" color="green" depart="33.5289902691" departLane="0" id="36" route="route0" type="Car" /><vehicle arrivalLane="0" color="green" depart="33.5289902691" departLane="0" id="37" route="route0" type="Car" /><vehicle arrivalLane="1" color="green" depart="33.5289902691" departLane="1" id="38" route="route0" type="Car" /><vehicle arrivalLane="1" color="green" depart="34.3195915665" departLane="1" id="39" route="route0" type="Car" /><vehicle arrivalLane="0" color="green" depart="34.7561786751" departLane="0" id="40" route="route0" type="Car" /><vehicle arrivalLane="1" color="green" depart="34.7561786751" departLane="1" id="41" route="route0" type="Car" /><vehicle arrivalLane="1" color="green" depart="35.6879803888" departLane="1" id="42" route="route0" type="Car" /><vehicle arrivalLane="0" color="green" depart="37.6655446052" departLane="0" id="43" route="route0" type="Car" /><vehicle arrivalLane="1" color="green" depart="37.6655446052" departLane="1" id="44" route="route0" type="Car" /><vehicle arrivalLane="0" color="green" depart="38.5504400312" departLane="0" id="45" route="route0" type="Car" /><vehicle arrivalLane="1" color="green" depart="38.5504400312" departLane="1" id="46" route="route0" type="Car" /><vehicle arrivalLane="0" color="green" depart="42.1582632952" departLane="0" id="47" route="route0" type="Car" /><vehicle arrivalLane="1" color="green" depart="42.1582632952" departLane="1" id="48" route="route0" type="Car" /><vehicle arrivalLane="1" color="green" depart="43.7208107122" departLane="1" id="49" route="route0" type="Car" /><vehicle arrivalLane="0" color="green" depart="45.0169750822" departLane="0" id="50" route="route0" type="Car" /><vehicle arrivalLane="1" color="green" depart="45.0169750822" departLane="1" id="51" route="route0" type="Car" /><vehicle arrivalLane="0" color="green" depart="49.4096229715" departLane="0" id="52" route="route0" type="Car" /><vehicle arrivalLane="0" color="green" depart="49.4096229715" departLane="0" id="53" route="route0" type="Car" /><vehicle arrivalLane="0" color="green" depart="49.4096229715" departLane="0" id="54" route="route0" type="Car" /><vehicle arrivalLane="1" color="green" depart="49.4096229715" departLane="1" id="55" route="route0" type="Car" /><vehicle arrivalLane="0" color="green" depart="51.0529225064" departLane="0" id="56" route="route0" type="Car" /><vehicle arrivalLane="0" color="green" depart="51.0529225064" departLane="0" id="57" route="route0" type="Car" /><vehicle arrivalLane="0" color="green" depart="51.0529225064" departLane="0" id="58" route="route0" type="Car" /><vehicle arrivalLane="1" color="green" depart="51.0529225064" departLane="1" id="59" route="route0" type="Car" /><vehicle arrivalLane="0" color="green" depart="52.1972870637" departLane="0" id="60" route="route0" type="Car" /><vehicle arrivalLane="1" color="green" depart="52.1972870637" departLane="1" id="61" route="route0" type="Car" /><vehicle arrivalLane="0" color="green" depart="56.8692933159" departLane="0" id="62" route="route0" type="Car" /><vehicle arrivalLane="0" color="green" depart="56.8692933159" departLane="0" id="63" route="route0" type="Car" /><vehicle arrivalLane="0" color="green" depart="56.8692933159" departLane="0" id="64" route="route0" type="Car" /><vehicle arrivalLane="1" color="green" depart="56.8692933159" departLane="1" id="65" route="route0" type="Car" /><vehicle arrivalLane="0" color="green" depart="61.1735357328" departLane="0" id="66" route="route0" type="Car" /><vehicle arrivalLane="0" color="green" depart="61.1735357328" departLane="0" id="67" route="route0" type="Car" /><vehicle arrivalLane="0" color="green" depart="61.1735357328" departLane="0" id="68" route="route0" type="Car" /><vehicle arrivalLane="0" color="green" depart="61.1735357328" departLane="0" id="69" route="route0" type="Car" /><vehicle arrivalLane="1" color="green" depart="61.1735357328" departLane="1" id="70" route="route0" type="Car" /><vehicle arrivalLane="1" color="green" depart="61.3208891593" departLane="1" id="71" route="route0" type="Car" /><vehicle arrivalLane="0" color="green" depart="63.0438672307" departLane="0" id="72" route="route0" type="Car" /><vehicle arrivalLane="0" color="green" depart="63.0438672307" departLane="0" id="73" route="route0" type="Car" /><vehicle arrivalLane="1" color="green" depart="63.0438672307" departLane="1" id="74" route="route0" type="Car" /><vehicle arrivalLane="0" color="green" depart="65.2065792053" departLane="0" id="75" route="route0" type="Car" /><vehicle arrivalLane="1" color="green" depart="65.2065792053" departLane="1" id="76" route="route0" type="Car" /><vehicle arrivalLane="0" color="green" depart="65.8028228379" departLane="0" id="77" route="route0" type="Car" /><vehicle arrivalLane="1" color="green" depart="65.8028228379" departLane="1" id="78" route="route0" type="Car" /><vehicle arrivalLane="1" color="green" depart="67.3703150684" departLane="1" id="79" route="route0" type="Car" /><vehicle arrivalLane="1" color="green" depart="67.510374992" departLane="1" id="80" route="route0" type="Car" /><vehicle arrivalLane="0" color="green" depart="71.8347699492" departLane="0" id="81" route="route0" type="Car" /><vehicle arrivalLane="0" color="green" depart="71.8347699492" departLane="0" id="82" route="route0" type="Car" /><vehicle arrivalLane="1" color="green" depart="71.8347699492" departLane="1" id="83" route="route0" type="Car" /><vehicle arrivalLane="1" color="green" depart="73.0377961539" departLane="1" id="84" route="route0" type="Car" /><vehicle arrivalLane="1" color="green" depart="76.2483759209" departLane="1" id="85" route="route0" type="Car" /><vehicle arrivalLane="0" color="green" depart="79.8339992077" departLane="0" id="86" route="route0" type="Car" /><vehicle arrivalLane="1" color="green" depart="79.8339992077" departLane="1" id="87" route="route0" type="Car" /><vehicle arrivalLane="0" color="green" depart="85.6251811552" departLane="0" id="88" route="route0" type="Car" /><vehicle arrivalLane="0" color="green" depart="85.6251811552" departLane="0" id="89" route="route0" type="Car" /><vehicle arrivalLane="0" color="green" depart="85.6251811552" departLane="0" id="90" route="route0" type="Car" /><vehicle arrivalLane="0" color="green" depart="85.6251811552" departLane="0" id="91" route="route0" type="Car" /><vehicle arrivalLane="0" color="red" depart="85.6251811552" departLane="0" id="vip" route="route0" type="CarVIP" /><vehicle arrivalLane="0" color="green" depart="85.6251811552" departLane="0" id="93" route="route0" type="Car" /><vehicle arrivalLane="1" color="green" depart="85.6251811552" departLane="1" id="94" route="route0" type="Car" /><vehicle arrivalLane="0" color="green" depart="87.3063476626" departLane="0" id="95" route="route0" type="Car" /><vehicle arrivalLane="1" color="green" depart="87.3063476626" departLane="1" id="96" route="route0" type="Car" /><vehicle arrivalLane="1" color="green" depart="88.5018215256" departLane="1" id="97" route="route0" type="Car" /><vehicle arrivalLane="1" color="green" depart="89.0153286936" departLane="1" id="98" route="route0" type="Car" /><vehicle arrivalLane="1" color="green" depart="90.6887904943" departLane="1" id="99" route="route0" type="Car" /><vehicle arrivalLane="1" color="green" depart="92.1355935584" departLane="1" id="100" route="route0" type="Car" /><vehicle arrivalLane="1" color="green" depart="92.4626370592" departLane="1" id="101" route="route0" type="Car" /><vehicle arrivalLane="0" color="green" depart="92.7678135709" departLane="0" id="102" route="route0" type="Car" /><vehicle arrivalLane="1" color="green" depart="92.7678135709" departLane="1" id="103" route="route0" type="Car" /><vehicle arrivalLane="1" color="green" depart="93.2210835848" departLane="1" id="104" route="route0" type="Car" /><vehicle arrivalLane="1" color="green" depart="93.3676368474" departLane="1" id="105" route="route0" type="Car" /><vehicle arrivalLane="1" color="green" depart="95.1936013026" departLane="1" id="106" route="route0" type="Car" /><vehicle arrivalLane="0" color="green" depart="97.0634639504" departLane="0" id="107" route="route0" type="Car" /><vehicle arrivalLane="1" color="green" depart="97.0634639504" departLane="1" id="108" route="route0" type="Car" /><vehicle arrivalLane="0" color="green" depart="99.9036039802" departLane="0" id="109" route="route0" type="Car" /><vehicle arrivalLane="0" color="green" depart="99.9036039802" departLane="0" id="110" route="route0" type="Car" /><vehicle arrivalLane="1" color="green" depart="99.9036039802" departLane="1" id="111" route="route0" type="Car" /><vehicle arrivalLane="1" color="green" depart="100.479038944" departLane="1" id="112" route="route0" type="Car" /><vehicle arrivalLane="1" color="green" depart="100.615914629" departLane="1" id="113" route="route0" type="Car" /><vehicle arrivalLane="1" color="green" depart="101.535312217" departLane="1" id="114" route="route0" type="Car" /><vehicle arrivalLane="1" color="green" depart="102.534440867" departLane="1" id="115" route="route0" type="Car" /><vehicle arrivalLane="1" color="green" depart="105.17382848" departLane="1" id="116" route="route0" type="Car" /><vehicle arrivalLane="0" color="green" depart="105.780073751" departLane="0" id="117" route="route0" type="Car" /><vehicle arrivalLane="1" color="green" depart="105.780073751" departLane="1" id="118" route="route0" type="Car" /><vehicle arrivalLane="1" color="green" depart="108.337029703" departLane="1" id="119" route="route0" type="Car" /><vehicle arrivalLane="0" color="green" depart="110.893994407" departLane="0" id="120" route="route0" type="Car" /><vehicle arrivalLane="0" color="green" depart="110.893994407" departLane="0" id="121" route="route0" type="Car" /><vehicle arrivalLane="0" color="green" depart="110.893994407" departLane="0" id="122" route="route0" type="Car" /><vehicle arrivalLane="0" color="green" depart="110.893994407" departLane="0" id="123" route="route0" type="Car" /><vehicle arrivalLane="1" color="green" depart="110.893994407" departLane="1" id="124" route="route0" type="Car" /><vehicle arrivalLane="1" color="green" depart="111.372803741" departLane="1" id="125" route="route0" type="Car" /><vehicle arrivalLane="0" color="green" depart="112.839040252" departLane="0" id="126" route="route0" type="Car" /><vehicle arrivalLane="1" color="green" depart="112.839040252" departLane="1" id="127" route="route0" type="Car" /><vehicle arrivalLane="0" color="green" depart="118.65462363" departLane="0" id="128" route="route0" type="Car" /><vehicle arrivalLane="0" color="green" depart="118.65462363" departLane="0" id="129" route="route0" type="Car" /><vehicle arrivalLane="0" color="green" depart="118.65462363" departLane="0" id="130" route="route0" type="Car" /><vehicle arrivalLane="0" color="green" depart="118.65462363" departLane="0" id="131" route="route0" type="Car" /><vehicle arrivalLane="0" color="green" depart="118.65462363" departLane="0" id="132" route="route0" type="Car" /><vehicle arrivalLane="1" color="green" depart="118.65462363" departLane="1" id="133" route="route0" type="Car" /><vehicle arrivalLane="1" color="green" depart="119.0201254" departLane="1" id="134" route="route0" type="Car" /><vehicle arrivalLane="0" color="green" depart="120.910464537" departLane="0" id="135" route="route0" type="Car" /><vehicle arrivalLane="1" color="green" depart="120.910464537" departLane="1" id="136" route="route0" type="Car" /><vehicle arrivalLane="1" color="green" depart="121.07287366" departLane="1" id="137" route="route0" type="Car" /><vehicle arrivalLane="0" color="green" depart="121.389611323" departLane="0" id="138" route="route0" type="Car" /><vehicle arrivalLane="1" color="green" depart="121.389611323" departLane="1" id="139" route="route0" type="Car" /><vehicle arrivalLane="0" color="green" depart="123.84932251" departLane="0" id="140" route="route0" type="Car" /><vehicle arrivalLane="1" color="green" depart="123.84932251" departLane="1" id="141" route="route0" type="Car" /><vehicle arrivalLane="0" color="green" depart="124.200094187" departLane="0" id="142" route="route0" type="Car" /><vehicle arrivalLane="1" color="green" depart="124.200094187" departLane="1" id="143" route="route0" type="Car" /><vehicle arrivalLane="1" color="green" depart="124.619130504" departLane="1" id="144" route="route0" type="Car" /><vehicle arrivalLane="0" color="green" depart="126.050153566" departLane="0" id="145" route="route0" type="Car" /><vehicle arrivalLane="1" color="green" depart="126.050153566" departLane="1" id="146" route="route0" type="Car" /><vehicle arrivalLane="1" color="green" depart="127.102142164" departLane="1" id="147" route="route0" type="Car" /><vehicle arrivalLane="1" color="green" depart="127.209999139" departLane="1" id="148" route="route0" type="Car" /><vehicle arrivalLane="0" color="green" depart="129.439664074" departLane="0" id="149" route="route0" type="Car" /><vehicle arrivalLane="1" color="green" depart="129.439664074" departLane="1" id="150" route="route0" type="Car" /><vehicle arrivalLane="1" color="green" depart="130.438121196" departLane="1" id="151" route="route0" type="Car" /><vehicle arrivalLane="0" color="green" depart="131.43382991" departLane="0" id="152" route="route0" type="Car" /><vehicle arrivalLane="1" color="green" depart="131.43382991" departLane="1" id="153" route="route0" type="Car" /><vehicle arrivalLane="1" color="green" depart="132.287199135" departLane="1" id="154" route="route0" type="Car" /><vehicle arrivalLane="0" color="green" depart="132.717560425" departLane="0" id="155" route="route0" type="Car" /><vehicle arrivalLane="0" color="green" depart="132.717560425" departLane="0" id="156" route="route0" type="Car" /><vehicle arrivalLane="1" color="green" depart="132.717560425" departLane="1" id="157" route="route0" type="Car" /><vehicle arrivalLane="1" color="green" depart="135.628372279" departLane="1" id="158" route="route0" type="Car" /><vehicle arrivalLane="0" color="green" depart="137.948876886" departLane="0" id="159" route="route0" type="Car" /><vehicle arrivalLane="0" color="green" depart="137.948876886" departLane="0" id="160" route="route0" type="Car" /><vehicle arrivalLane="1" color="green" depart="137.948876886" departLane="1" id="161" route="route0" type="Car" /><vehicle arrivalLane="0" color="green" depart="139.823650177" departLane="0" id="162" route="route0" type="Car" /><vehicle arrivalLane="0" color="green" depart="139.823650177" departLane="0" id="163" route="route0" type="Car" /><vehicle arrivalLane="1" color="green" depart="139.823650177" departLane="1" id="164" route="route0" type="Car" /><vehicle arrivalLane="1" color="green" depart="140.568307496" departLane="1" id="165" route="route0" type="Car" /><vehicle arrivalLane="0" color="green" depart="143.110117996" departLane="0" id="166" route="route0" type="Car" /><vehicle arrivalLane="0" color="green" depart="143.110117996" departLane="0" id="167" route="route0" type="Car" /><vehicle arrivalLane="1" color="green" depart="143.110117996" departLane="1" id="168" route="route0" type="Car" /><vehicle arrivalLane="0" color="green" depart="149.736746699" departLane="0" id="169" route="route0" type="Car" /><vehicle arrivalLane="1" color="green" depart="149.736746699" departLane="1" id="170" route="route0" type="Car" /><vehicle arrivalLane="0" color="green" depart="153.171733047" departLane="0" id="171" route="route0" type="Car" /><vehicle arrivalLane="0" color="green" depart="153.171733047" departLane="0" id="172" route="route0" type="Car" /><vehicle arrivalLane="0" color="green" depart="153.171733047" departLane="0" id="173" route="route0" type="Car" /><vehicle arrivalLane="1" color="green" depart="153.171733047" departLane="1" id="174" route="route0" type="Car" /><vehicle arrivalLane="0" color="green" depart="153.90266902" departLane="0" id="175" route="route0" type="Car" /><vehicle arrivalLane="1" color="green" depart="153.90266902" departLane="1" id="176" route="route0" type="Car" /><vehicle arrivalLane="0" color="green" depart="157.656198201" departLane="0" id="177" route="route0" type="Car" /><vehicle arrivalLane="1" color="green" depart="157.656198201" departLane="1" id="178" route="route0" type="Car" /><vehicle arrivalLane="0" color="green" depart="160.844618043" departLane="0" id="179" route="route0" type="Car" /><vehicle arrivalLane="0" color="green" depart="160.844618043" departLane="0" id="180" route="route0" type="Car" /><vehicle arrivalLane="1" color="green" depart="160.844618043" departLane="1" id="181" route="route0" type="Car" /><vehicle arrivalLane="1" color="green" depart="162.446551723" departLane="1" id="182" route="route0" type="Car" /><vehicle arrivalLane="1" color="green" depart="162.914600314" departLane="1" id="183" route="route0" type="Car" /><vehicle arrivalLane="0" color="green" depart="164.408739985" departLane="0" id="184" route="route0" type="Car" /><vehicle arrivalLane="1" color="green" depart="164.408739985" departLane="1" id="185" route="route0" type="Car" /><vehicle arrivalLane="0" color="green" depart="171.007777619" departLane="0" id="186" route="route0" type="Car" /><vehicle arrivalLane="0" color="green" depart="171.007777619" departLane="0" id="187" route="route0" type="Car" /><vehicle arrivalLane="1" color="green" depart="171.007777619" departLane="1" id="188" route="route0" type="Car" /><vehicle arrivalLane="1" color="green" depart="171.791137309" departLane="1" id="189" route="route0" type="Car" /><vehicle arrivalLane="0" color="green" depart="174.917999249" departLane="0" id="190" route="route0" type="Car" /><vehicle arrivalLane="0" color="green" depart="174.917999249" departLane="0" id="191" route="route0" type="Car" /><vehicle arrivalLane="1" color="green" depart="174.917999249" departLane="1" id="192" route="route0" type="Car" /><vehicle arrivalLane="0" color="green" depart="178.251938071" departLane="0" id="193" route="route0" type="Car" /><vehicle arrivalLane="0" color="green" depart="178.251938071" departLane="0" id="194" route="route0" type="Car" /><vehicle arrivalLane="1" color="green" depart="178.251938071" departLane="1" id="195" route="route0" type="Car" /><vehicle arrivalLane="0" color="green" depart="178.949849565" departLane="0" id="196" route="route0" type="Car" /><vehicle arrivalLane="1" color="green" depart="178.949849565" departLane="1" id="197" route="route0" type="Car" /><vehicle arrivalLane="0" color="green" depart="179.473783939" departLane="0" id="198" route="route0" type="Car" /><vehicle arrivalLane="1" color="green" depart="179.473783939" departLane="1" id="199" route="route0" type="Car" /></routes>