<routes><vType accel="2.9" decel="7.5" id="Car" length="4.3" maxSpeed="27.78" minGap="-1" sigma="0.0" tau="0" /><vType accel="2.9" decel="7.5" id="CarVIP" length="6.5" maxSpeed="27.78" minGap="-1" sigma="0.0" tau="0" /><route edges="1to2" id="route0" /><vehicle arrivalLane="0" color="green" depart="3.8921632707" departLane="0" id="0" route="route0" type="Car" /><vehicle arrivalLane="1" color="green" depart="3.8921632707" departLane="1" id="1" route="route0" type="Car" /><vehicle arrivalLane="1" color="green" depart="3.92171633257" departLane="1" id="2" route="route0" type="Car" /><vehicle arrivalLane="1" color="green" depart="4.69310486742" departLane="1" id="3" route="route0" type="Car" /><vehicle arrivalLane="0" color="green" depart="7.65480178522" departLane="0" id="4" route="route0" type="Car" /><vehicle arrivalLane="1" color="green" depart="7.65480178522" departLane="1" id="5" route="route0" type="Car" /><vehicle arrivalLane="1" color="green" depart="8.49830850478" departLane="1" id="6" route="route0" type="Car" /><vehicle arrivalLane="0" color="green" depart="10.3762629156" departLane="0" id="7" route="route0" type="Car" /><vehicle arrivalLane="0" color="green" depart="10.3762629156" departLane="0" id="8" route="route0" type="Car" /><vehicle arrivalLane="1" color="green" depart="10.3762629156" departLane="1" id="9" route="route0" type="Car" /><vehicle arrivalLane="1" color="green" depart="10.7391483355" departLane="1" id="10" route="route0" type="Car" /><vehicle arrivalLane="0" color="green" depart="13.9829721935" departLane="0" id="11" route="route0" type="Car" /><vehicle arrivalLane="0" color="green" depart="13.9829721935" departLane="0" id="12" route="route0" type="Car" /><vehicle arrivalLane="0" color="green" depart="13.9829721935" departLane="0" id="13" route="route0" type="Car" /><vehicle arrivalLane="1" color="green" depart="13.9829721935" departLane="1" id="14" route="route0" type="Car" /><vehicle arrivalLane="0" color="green" depart="17.6459363876" departLane="0" id="15" route="route0" type="Car" /><vehicle arrivalLane="0" color="green" depart="17.6459363876" departLane="0" id="16" route="route0" type="Car" /><vehicle arrivalLane="0" color="green" depart="17.6459363876" departLane="0" id="17" route="route0" type="Car" /><vehicle arrivalLane="0" color="green" depart="17.6459363876" departLane="0" id="18" route="route0" type="Car" /><vehicle arrivalLane="0" color="green" depart="17.6459363876" departLane="0" id="19" route="route0" type="Car" /><vehicle arrivalLane="1" color="green" depart="17.6459363876" departLane="1" id="20" route="route0" type="Car" /><vehicle arrivalLane="1" color="green" depart="18.1798909769" departLane="1" id="21" route="route0" type="Car" /><vehicle arrivalLane="0" color="green" depart="20.1141824622" departLane="0" id="22" route="route0" type="Car" /><vehicle arrivalLane="1" color="green" depart="20.1141824622" departLane="1" id="23" route="route0" type="Car" /><vehicle arrivalLane="1" color="green" depart="21.0250835767" departLane="1" id="24" route="route0" type="Car" /><vehicle arrivalLane="1" color="green" depart="22.6217939658" departLane="1" id="25" route="route0" type="Car" /><vehicle arrivalLane="0" color="green" depart="23.720714509" departLane="0" id="26" route="route0" type="Car" /><vehicle arrivalLane="1" color="green" depart="23.720714509" departLane="1" id="27" route="route0" type="Car" /><vehicle arrivalLane="0" color="green" depart="30.9792776135" departLane="0" id="28" route="route0" type="Car" /><vehicle arrivalLane="0" color="green" depart="30.9792776135" departLane="0" id="29" route="route0" type="Car" /><vehicle arrivalLane="0" color="green" depart="30.9792776135" departLane="0" id="30" route="route0" type="Car" /><vehicle arrivalLane="0" color="green" depart="30.9792776135" departLane="0" id="31" route="route0" type="Car" /><vehicle arrivalLane="0" color="green" depart="30.9792776135" departLane="0" id="32" route="route0" type="Car" /><vehicle arrivalLane="0" color="green" depart="30.9792776135" departLane="0" id="33" route="route0" type="Car" /><vehicle arrivalLane="1" color="green" depart="30.9792776135" departLane="1" id="34" route="route0" type="Car" /><vehicle arrivalLane="0" color="green" depart="31.3860364516" departLane="0" id="35" route="route0" type="Car" /><vehicle arrivalLane="1" color="green" depart="31.3860364516" departLane="1" id="36" route="route0" type="Car" /><vehicle arrivalLane="0" color="green" depart="36.5761332402" departLane="0" id="37" route="route0" type="Car" /><vehicle arrivalLane="0" color="green" depart="36.5761332402" departLane="0" id="38" route="route0" type="Car" /><vehicle arrivalLane="0" color="green" depart="36.5761332402" departLane="0" id="39" route="route0" type="Car" /><vehicle arrivalLane="0" color="green" depart="36.5761332402" departLane="0" id="40" route="route0" type="Car" /><vehicle arrivalLane="0" color="green" depart="36.5761332402" departLane="0" id="41" route="route0" type="Car" /><vehicle arrivalLane="1" color="green" depart="36.5761332402" departLane="1" id="42" route="route0" type="Car" /><vehicle arrivalLane="0" color="green" depart="46.0174464529" departLane="0" id="43" route="route0" type="Car" /><vehicle arrivalLane="0" color="green" depart="46.0174464529" departLane="0" id="44" route="route0" type="Car" /><vehicle arrivalLane="0" color="green" depart="46.0174464529" departLane="0" id="45" route="route0" type="Car" /><vehicle arrivalLane="0" color="green" depart="46.0174464529" departLane="0" id="46" route="route0" type="Car" /><vehicle arrivalLane="0" color="green" depart="46.0174464529" departLane="0" id="47" route="route0" type="Car" /><vehicle arrivalLane="1" color="green" depart="46.0174464529" departLane="1" id="48" route="route0" type="Car" /><vehicle arrivalLane="0" color="green" depart="47.3427904979" departLane="0" id="49" route="route0" type="Car" /><vehicle arrivalLane="1" color="green" depart="47.3427904979" departLane="1" id="50" route="route0" type="Car" /><vehicle arrivalLane="1" color="green" depart="48.6202243449" departLane="1" id="51" route="route0" type="Car" /><vehicle arrivalLane="0" color="green" depart="49.8545597975" departLane="0" id="52" route="route0" type="Car" /><vehicle arrivalLane="1" color="green" depart="49.8545597975" departLane="1" id="53" route="route0" type="Car" /><vehicle arrivalLane="1" color="green" depart="50.0686090672" departLane="1" id="54" route="route0" type="Car" /><vehicle arrivalLane="0" color="green" depart="52.3716499341" departLane="0" id="55" route="route0" type="Car" /><vehicle arrivalLane="0" color="green" depart="52.3716499341" departLane="0" id="56" route="route0" type="Car" /><vehicle arrivalLane="1" color="green" depart="52.3716499341" departLane="1" id="57" route="route0" type="Car" /><vehicle arrivalLane="0" color="green" depart="53.5679725869" departLane="0" id="58" route="route0" type="Car" /><vehicle arrivalLane="1" color="green" depart="53.5679725869" departLane="1" id="59" route="route0" type="Car" /><vehicle arrivalLane="0" color="green" depart="54.9677360031" departLane="0" id="60" route="route0" type="Car" /><vehicle arrivalLane="1" color="green" depart="54.9677360031" departLane="1" id="61" route="route0" type="Car" /><vehicle arrivalLane="1" color="green" depart="56.0514164412" departLane="1" id="62" route="route0" type="Car" /><vehicle arrivalLane="0" color="green" depart="59.5371088465" departLane="0" id="63" route="route0" type="Car" /><vehicle arrivalLane="1" color="green" depart="59.5371088465" departLane="1" id="64" route="route0" type="Car" /><vehicle arrivalLane="1" color="green" depart="61.2897369131" departLane="1" id="65" route="route0" type="Car" /><vehicle arrivalLane="0" color="green" depart="62.4299386784" departLane="0" id="66" route="route0" type="Car" /><vehicle arrivalLane="1" color="green" depart="62.4299386784" departLane="1" id="67" route="route0" type="Car" /><vehicle arrivalLane="1" color="green" depart="63.6367230853" departLane="1" id="68" route="route0" type="Car" /><vehicle arrivalLane="1" color="green" depart="63.8011596868" departLane="1" id="69" route="route0" type="Car" /><vehicle arrivalLane="0" color="green" depart="68.044238454" departLane="0" id="70" route="route0" type="Car" /><vehicle arrivalLane="0" color="green" depart="68.044238454" departLane="0" id="71" route="route0" type="Car" /><vehicle arrivalLane="1" color="green" depart="68.044238454" departLane="1" id="72" route="route0" type="Car" /><vehicle arrivalLane="1" color="green" depart="68.2572900486" departLane="1" id="73" route="route0" type="Car" /><vehicle arrivalLane="1" color="green" depart="70.6945583441" departLane="1" id="74" route="route0" type="Car" /><vehicle arrivalLane="0" color="green" depart="71.4831770735" departLane="0" id="75" route="route0" type="Car" /><vehicle arrivalLane="1" color="green" depart="71.4831770735" departLane="1" id="76" route="route0" type="Car" /><vehicle arrivalLane="0" color="green" depart="72.361309087" departLane="0" id="77" route="route0" type="Car" /><vehicle arrivalLane="1" color="green" depart="72.361309087" departLane="1" id="78" route="route0" type="Car" /><vehicle arrivalLane="1" color="green" depart="75.3201583518" departLane="1" id="79" route="route0" type="Car" /><vehicle arrivalLane="0" color="green" depart="77.6383088052" departLane="0" id="80" route="route0" type="Car" /><vehicle arrivalLane="0" color="green" depart="77.6383088052" departLane="0" id="81" route="route0" type="Car" /><vehicle arrivalLane="1" color="green" depart="77.6383088052" departLane="1" id="82" route="route0" type="Car" /><vehicle arrivalLane="1" color="green" depart="77.8931830507" departLane="1" id="83" route="route0" type="Car" /><vehicle arrivalLane="0" color="green" depart="80.9137557467" departLane="0" id="84" route="route0" type="Car" /><vehicle arrivalLane="1" color="green" depart="80.9137557467" departLane="1" id="85" route="route0" type="Car" /><vehicle arrivalLane="1" color="green" depart="82.1364546284" departLane="1" id="86" route="route0" type="Car" /><vehicle arrivalLane="0" color="green" depart="83.2118168966" departLane="0" id="87" route="route0" type="Car" /><vehicle arrivalLane="1" color="green" depart="83.2118168966" departLane="1" id="88" route="route0" type="Car" /><vehicle arrivalLane="1" color="green" depart="83.7085613121" departLane="1" id="89" route="route0" type="Car" /><vehicle arrivalLane="0" color="green" depart="89.9720103688" departLane="0" id="90" route="route0" type="Car" /><vehicle arrivalLane="0" color="green" depart="89.9720103688" departLane="0" id="91" route="route0" type="Car" /><vehicle arrivalLane="1" color="green" depart="89.9720103688" departLane="1" id="92" route="route0" type="Car" /><vehicle arrivalLane="0" color="green" depart="93.9560378774" departLane="0" id="93" route="route0" type="Car" /><vehicle arrivalLane="1" color="green" depart="93.9560378774" departLane="1" id="94" route="route0" type="Car" /><vehicle arrivalLane="1" color="green" depart="94.4994792798" departLane="1" id="95" route="route0" type="Car" /><vehicle arrivalLane="0" color="red" depart="98.4308995421" departLane="0" id="vip" route="route0" type="CarVIP" /><vehicle arrivalLane="0" color="green" depart="98.4308995421" departLane="0" id="97" route="route0" type="Car" /><vehicle arrivalLane="1" color="green" depart="98.4308995421" departLane="1" id="98" route="route0" type="Car" /><vehicle arrivalLane="0" color="green" depart="100.271682179" departLane="0" id="99" route="route0" type="Car" /><vehicle arrivalLane="0" color="green" depart="100.271682179" departLane="0" id="100" route="route0" type="Car" /><vehicle arrivalLane="0" color="green" depart="100.271682179" departLane="0" id="101" route="route0" type="Car" /><vehicle arrivalLane="0" color="green" depart="100.271682179" departLane="0" id="102" route="route0" type="Car" /><vehicle arrivalLane="1" color="green" depart="100.271682179" departLane="1" id="103" route="route0" type="Car" /><vehicle arrivalLane="1" color="green" depart="102.019654891" departLane="1" id="104" route="route0" type="Car" /><vehicle arrivalLane="0" color="green" depart="104.198948885" departLane="0" id="105" route="route0" type="Car" /><vehicle arrivalLane="0" color="green" depart="104.198948885" departLane="0" id="106" route="route0" type="Car" /><vehicle arrivalLane="1" color="green" depart="104.198948885" departLane="1" id="107" route="route0" type="Car" /><vehicle arrivalLane="1" color="green" depart="104.535549481" departLane="1" id="108" route="route0" type="Car" /><vehicle arrivalLane="0" color="green" depart="108.813550626" departLane="0" id="109" route="route0" type="Car" /><vehicle arrivalLane="0" color="green" depart="108.813550626" departLane="0" id="110" route="route0" type="Car" /><vehicle arrivalLane="0" color="green" depart="108.813550626" departLane="0" id="111" route="route0" type="Car" /><vehicle arrivalLane="1" color="green" depart="108.813550626" departLane="1" id="112" route="route0" type="Car" /><vehicle arrivalLane="0" color="green" depart="113.19026944" departLane="0" id="113" route="route0" type="Car" /><vehicle arrivalLane="0" color="green" depart="113.19026944" departLane="0" id="114" route="route0" type="Car" /><vehicle arrivalLane="0" color="green" depart="113.19026944" departLane="0" id="115" route="route0" type="Car" /><vehicle arrivalLane="1" color="green" depart="113.19026944" departLane="1" id="116" route="route0" type="Car" /><vehicle arrivalLane="0" color="green" depart="114.044033446" departLane="0" id="117" route="route0" type="Car" /><vehicle arrivalLane="1" color="green" depart="114.044033446" departLane="1" id="118" route="route0" type="Car" /><vehicle arrivalLane="0" color="green" depart="116.811101459" departLane="0" id="119" route="route0" type="Car" /><vehicle arrivalLane="1" color="green" depart="116.811101459" departLane="1" id="120" route="route0" type="Car" /><vehicle arrivalLane="0" color="green" depart="122.326795913" departLane="0" id="121" route="route0" type="Car" /><vehicle arrivalLane="0" color="green" depart="122.326795913" departLane="0" id="122" route="route0" type="Car" /><vehicle arrivalLane="1" color="green" depart="122.326795913" departLane="1" id="123" route="route0" type="Car" /><vehicle arrivalLane="1" color="green" depart="125.150743126" departLane="1" id="124" route="route0" type="Car" /><vehicle arrivalLane="0" color="green" depart="127.099314448" departLane="0" id="125" route="route0" type="Car" /><vehicle arrivalLane="1" color="green" depart="127.099314448" departLane="1" id="126" route="route0" type="Car" /><vehicle arrivalLane="0" color="green" depart="127.337362586" departLane="0" id="127" route="route0" type="Car" /><vehicle arrivalLane="1" color="green" depart="127.337362586" departLane="1" id="128" route="route0" type="Car" /><vehicle arrivalLane="1" color="green" depart="127.469103818" departLane="1" id="129" route="route0" type="Car" /><vehicle arrivalLane="0" color="green" depart="132.459025396" departLane="0" id="130" route="route0" type="Car" /><vehicle arrivalLane="1" color="green" depart="132.459025396" departLane="1" id="131" route="route0" type="Car" /><vehicle arrivalLane="0" color="green" depart="134.031525256" departLane="0" id="132" route="route0" type="Car" /><vehicle arrivalLane="1" color="green" depart="134.031525256" departLane="1" id="133" route="route0" type="Car" /><vehicle arrivalLane="0" color="green" depart="135.798999531" departLane="0" id="134" route="route0" type="Car" /><vehicle arrivalLane="1" color="green" depart="135.798999531" departLane="1" id="135" route="route0" type="Car" /><vehicle arrivalLane="0" color="green" depart="140.928134788" departLane="0" id="136" route="route0" type="Car" /><vehicle arrivalLane="1" color="green" depart="140.928134788" departLane="1" id="137" route="route0" type="Car" /><vehicle arrivalLane="0" color="green" depart="141.906040988" departLane="0" id="138" route="route0" type="Car" /><vehicle arrivalLane="1" color="green" depart="141.906040988" departLane="1" id="139" route="route0" type="Car" /><vehicle arrivalLane="1" color="green" depart="142.40934442" departLane="1" id="140" route="route0" type="Car" /><vehicle arrivalLane="1" color="green" depart="143.11877083" departLane="1" id="141" route="route0" type="Car" /><vehicle arrivalLane="1" color="green" depart="143.438081404" departLane="1" id="142" route="route0" type="Car" /><vehicle arrivalLane="0" color="green" depart="146.352215571" departLane="0" id="143" route="route0" type="Car" /><vehicle arrivalLane="1" color="green" depart="146.352215571" departLane="1" id="144" route="route0" type="Car" /><vehicle arrivalLane="1" color="green" depart="147.836502758" departLane="1" id="145" route="route0" type="Car" /><vehicle arrivalLane="1" color="green" depart="149.076107507" departLane="1" id="146" route="route0" type="Car" /><vehicle arrivalLane="0" color="green" depart="154.26399311" departLane="0" id="147" route="route0" type="Car" /><vehicle arrivalLane="1" color="green" depart="154.26399311" departLane="1" id="148" route="route0" type="Car" /><vehicle arrivalLane="1" color="green" depart="154.459462569" departLane="1" id="149" route="route0" type="Car" /><vehicle arrivalLane="1" color="green" depart="156.865203494" departLane="1" id="150" route="route0" type="Car" /><vehicle arrivalLane="1" color="green" depart="158.165628194" departLane="1" id="151" route="route0" type="Car" /><vehicle arrivalLane="0" color="green" depart="160.398217009" departLane="0" id="152" route="route0" type="Car" /><vehicle arrivalLane="1" color="green" depart="160.398217009" departLane="1" id="153" route="route0" type="Car" /><vehicle arrivalLane="0" color="green" depart="162.525305063" departLane="0" id="154" route="route0" type="Car" /><vehicle arrivalLane="0" color="green" depart="162.525305063" departLane="0" id="155" route="route0" type="Car" /><vehicle arrivalLane="0" color="green" depart="162.525305063" departLane="0" id="156" route="route0" type="Car" /><vehicle arrivalLane="1" color="green" depart="162.525305063" departLane="1" id="157" route="route0" type="Car" /><vehicle arrivalLane="0" color="green" depart="173.325456699" departLane="0" id="158" route="route0" type="Car" /><vehicle arrivalLane="0" color="green" depart="173.325456699" departLane="0" id="159" route="route0" type="Car" /><vehicle arrivalLane="0" color="green" depart="173.325456699" departLane="0" id="160" route="route0" type="Car" /><vehicle arrivalLane="0" color="green" depart="173.325456699" departLane="0" id="161" route="route0" type="Car" /><vehicle arrivalLane="0" color="green" depart="173.325456699" departLane="0" id="162" route="route0" type="Car" /><vehicle arrivalLane="0" color="green" depart="173.325456699" departLane="0" id="163" route="route0" type="Car" /><vehicle arrivalLane="0" color="green" depart="173.325456699" departLane="0" id="164" route="route0" type="Car" /><vehicle arrivalLane="0" color="green" depart="173.325456699" departLane="0" id="165" route="route0" type="Car" /><vehicle arrivalLane="0" color="green" depart="173.325456699" departLane="0" id="166" route="route0" type="Car" /><vehicle arrivalLane="1" color="green" depart="173.325456699" departLane="1" id="167" route="route0" type="Car" /><vehicle arrivalLane="0" color="green" depart="177.309855294" departLane="0" id="168" route="route0" type="Car" /><vehicle arrivalLane="1" color="green" depart="177.309855294" departLane="1" id="169" route="route0" type="Car" /><vehicle arrivalLane="0" color="green" depart="180.495855274" departLane="0" id="170" route="route0" type="Car" /><vehicle arrivalLane="1" color="green" depart="180.495855274" departLane="1" id="171" route="route0" type="Car" /><vehicle arrivalLane="0" color="green" depart="181.297304421" departLane="0" id="172" route="route0" type="Car" /><vehicle arrivalLane="1" color="green" depart="181.297304421" departLane="1" id="173" route="route0" type="Car" /><vehicle arrivalLane="1" color="green" depart="181.337004806" departLane="1" id="174" route="route0" type="Car" /><vehicle arrivalLane="1" color="green" depart="183.886771356" departLane="1" id="175" route="route0" type="Car" /><vehicle arrivalLane="0" color="green" depart="186.213715613" departLane="0" id="176" route="route0" type="Car" /><vehicle arrivalLane="0" color="green" depart="186.213715613" departLane="0" id="177" route="route0" type="Car" /><vehicle arrivalLane="1" color="green" depart="186.213715613" departLane="1" id="178" route="route0" type="Car" /><vehicle arrivalLane="0" color="green" depart="189.311657375" departLane="0" id="179" route="route0" type="Car" /><vehicle arrivalLane="0" color="green" depart="189.311657375" departLane="0" id="180" route="route0" type="Car" /><vehicle arrivalLane="0" color="green" depart="189.311657375" departLane="0" id="181" route="route0" type="Car" /><vehicle arrivalLane="1" color="green" depart="189.311657375" departLane="1" id="182" route="route0" type="Car" /><vehicle arrivalLane="0" color="green" depart="190.598276075" departLane="0" id="183" route="route0" type="Car" /><vehicle arrivalLane="1" color="green" depart="190.598276075" departLane="1" id="184" route="route0" type="Car" /><vehicle arrivalLane="0" color="green" depart="193.75819087" departLane="0" id="185" route="route0" type="Car" /><vehicle arrivalLane="1" color="green" depart="193.75819087" departLane="1" id="186" route="route0" type="Car" /><vehicle arrivalLane="1" color="green" depart="197.099278242" departLane="1" id="187" route="route0" type="Car" /><vehicle arrivalLane="1" color="green" depart="198.199775828" departLane="1" id="188" route="route0" type="Car" /><vehicle arrivalLane="1" color="green" depart="198.974666264" departLane="1" id="189" route="route0" type="Car" /><vehicle arrivalLane="1" color="green" depart="200.049934763" departLane="1" id="190" route="route0" type="Car" /><vehicle arrivalLane="1" color="green" depart="200.811602454" departLane="1" id="191" route="route0" type="Car" /><vehicle arrivalLane="1" color="green" depart="201.88514663" departLane="1" id="192" route="route0" type="Car" /><vehicle arrivalLane="1" color="green" depart="205.423458673" departLane="1" id="193" route="route0" type="Car" /><vehicle arrivalLane="1" color="green" depart="205.80897179" departLane="1" id="194" route="route0" type="Car" /><vehicle arrivalLane="1" color="green" depart="206.761871563" departLane="1" id="195" route="route0" type="Car" /><vehicle arrivalLane="1" color="green" depart="207.209186171" departLane="1" id="196" route="route0" type="Car" /><vehicle arrivalLane="1" color="green" depart="207.920654371" departLane="1" id="197" route="route0" type="Car" /><vehicle arrivalLane="1" color="green" depart="210.523806089" departLane="1" id="198" route="route0" type="Car" /><vehicle arrivalLane="1" color="green" depart="210.616338071" departLane="1" id="199" route="route0" type="Car" /></routes>