<routes><vType accel="2.9" decel="7.5" id="Car" length="4.3" maxSpeed="27.78" minGap="-1" sigma="0.0" tau="0" /><vType accel="2.9" decel="7.5" id="CarVIP" length="6.5" maxSpeed="27.78" minGap="-1" sigma="0.0" tau="0" /><route edges="1to2" id="route0" /><vehicle arrivalLane="1" color="green" depart="3.02229168615" departLane="1" id="0" route="route0" type="Car" /><vehicle arrivalLane="0" color="green" depart="8.34271693617" departLane="0" id="1" route="route0" type="Car" /><vehicle arrivalLane="0" color="green" depart="8.34271693617" departLane="0" id="2" route="route0" type="Car" /><vehicle arrivalLane="0" color="green" depart="8.34271693617" departLane="0" id="3" route="route0" type="Car" /><vehicle arrivalLane="0" color="green" depart="8.34271693617" departLane="0" id="4" route="route0" type="Car" /><vehicle arrivalLane="0" color="green" depart="8.34271693617" departLane="0" id="5" route="route0" type="Car" /><vehicle arrivalLane="1" color="green" depart="8.34271693617" departLane="1" id="6" route="route0" type="Car" /><vehicle arrivalLane="1" color="green" depart="8.98759483244" departLane="1" id="7" route="route0" type="Car" /><vehicle arrivalLane="1" color="green" depart="9.60470409355" departLane="1" id="8" route="route0" type="Car" /><vehicle arrivalLane="0" color="green" depart="15.5839959863" departLane="0" id="9" route="route0" type="Car" /><vehicle arrivalLane="1" color="green" depart="15.5839959863" departLane="1" id="10" route="route0" type="Car" /><vehicle arrivalLane="0" color="green" depart="29.2379721114" departLane="0" id="11" route="route0" type="Car" /><vehicle arrivalLane="0" color="green" depart="29.2379721114" departLane="0" id="12" route="route0" type="Car" /><vehicle arrivalLane="0" color="green" depart="29.2379721114" departLane="0" id="13" route="route0" type="Car" /><vehicle arrivalLane="0" color="green" depart="29.2379721114" departLane="0" id="14" route="route0" type="Car" /><vehicle arrivalLane="0" color="green" depart="29.2379721114" departLane="0" id="15" route="route0" type="Car" /><vehicle arrivalLane="0" color="green" depart="29.2379721114" departLane="0" id="16" route="route0" type="Car" /><vehicle arrivalLane="0" color="green" depart="29.2379721114" departLane="0" id="17" route="route0" type="Car" /><vehicle arrivalLane="0" color="green" depart="29.2379721114" departLane="0" id="18" route="route0" type="Car" /><vehicle arrivalLane="0" color="green" depart="29.2379721114" departLane="0" id="19" route="route0" type="Car" /><vehicle arrivalLane="1" color="green" depart="29.2379721114" departLane="1" id="20" route="route0" type="Car" /><vehicle arrivalLane="0" color="green" depart="36.0406022646" departLane="0" id="21" route="route0" type="Car" /><vehicle arrivalLane="0" color="green" depart="36.0406022646" departLane="0" id="22" route="route0" type="Car" /><vehicle arrivalLane="0" color="green" depart="36.0406022646" departLane="0" id="23" route="route0" type="Car" /><vehicle arrivalLane="1" color="green" depart="36.0406022646" departLane="1" id="24" route="route0" type="Car" /><vehicle arrivalLane="1" color="green" depart="36.1244983279" departLane="1" id="25" route="route0" type="Car" /><vehicle arrivalLane="0" color="green" depart="37.7788979278" departLane="0" id="26" route="route0" type="Car" /><vehicle arrivalLane="1" color="green" depart="37.7788979278" departLane="1" id="27" route="route0" type="Car" /><vehicle arrivalLane="1" color="green" depart="40.7815123775" departLane="1" id="28" route="route0" type="Car" /><vehicle arrivalLane="1" color="green" depart="41.1700045118" departLane="1" id="29" route="route0" type="Car" /><vehicle arrivalLane="0" color="green" depart="43.6838784296" departLane="0" id="30" route="route0" type="Car" /><vehicle arrivalLane="0" color="green" depart="43.6838784296" departLane="0" id="31" route="route0" type="Car" /><vehicle arrivalLane="1" color="green" depart="43.6838784296" departLane="1" id="32" route="route0" type="Car" /><vehicle arrivalLane="1" color="green" depart="44.1862490001" departLane="1" id="33" route="route0" type="Car" /><vehicle arrivalLane="1" color="green" depart="44.9891298308" departLane="1" id="34" route="route0" type="Car" /><vehicle arrivalLane="0" color="green" depart="46.3048218592" departLane="0" id="35" route="route0" type="Car" /><vehicle arrivalLane="1" color="green" depart="46.3048218592" departLane="1" id="36" route="route0" type="Car" /><vehicle arrivalLane="0" color="green" depart="50.0297115652" departLane="0" id="37" route="route0" type="Car" /><vehicle arrivalLane="0" color="green" depart="50.0297115652" departLane="0" id="38" route="route0" type="Car" /><vehicle arrivalLane="0" color="green" depart="50.0297115652" departLane="0" id="39" route="route0" type="Car" /><vehicle arrivalLane="1" color="green" depart="50.0297115652" departLane="1" id="40" route="route0" type="Car" /><vehicle arrivalLane="0" color="green" depart="52.7127562297" departLane="0" id="41" route="route0" type="Car" /><vehicle arrivalLane="1" color="green" depart="52.7127562297" departLane="1" id="42" route="route0" type="Car" /><vehicle arrivalLane="0" color="green" depart="54.2342953511" departLane="0" id="43" route="route0" type="Car" /><vehicle arrivalLane="0" color="green" depart="54.2342953511" departLane="0" id="44" route="route0" type="Car" /><vehicle arrivalLane="1" color="green" depart="54.2342953511" departLane="1" id="45" route="route0" type="Car" /><vehicle arrivalLane="1" color="green" depart="55.4507468039" departLane="1" id="46" route="route0" type="Car" /><vehicle arrivalLane="1" color="green" depart="56.7265091541" departLane="1" id="47" route="route0" type="Car" /><vehicle arrivalLane="0" color="green" depart="58.5621793247" departLane="0" id="48" route="route0" type="Car" /><vehicle arrivalLane="1" color="green" depart="58.5621793247" departLane="1" id="49" route="route0" type="Car" /><vehicle arrivalLane="1" color="green" depart="58.7863593863" departLane="1" id="50" route="route0" type="Car" /><vehicle arrivalLane="0" color="green" depart="60.4364497419" departLane="0" id="51" route="route0" type="Car" /><vehicle arrivalLane="0" color="green" depart="60.4364497419" departLane="0" id="52" route="route0" type="Car" /><vehicle arrivalLane="0" color="green" depart="60.4364497419" departLane="0" id="53" route="route0" type="Car" /><vehicle arrivalLane="1" color="green" depart="60.4364497419" departLane="1" id="54" route="route0" type="Car" /><vehicle arrivalLane="1" color="green" depart="62.164582947" departLane="1" id="55" route="route0" type="Car" /><vehicle arrivalLane="0" color="green" depart="65.8885008136" departLane="0" id="56" route="route0" type="Car" /><vehicle arrivalLane="0" color="green" depart="65.8885008136" departLane="0" id="57" route="route0" type="Car" /><vehicle arrivalLane="0" color="green" depart="65.8885008136" departLane="0" id="58" route="route0" type="Car" /><vehicle arrivalLane="1" color="green" depart="65.8885008136" departLane="1" id="59" route="route0" type="Car" /><vehicle arrivalLane="0" color="green" depart="66.626204443" departLane="0" id="60" route="route0" type="Car" /><vehicle arrivalLane="0" color="green" depart="66.626204443" departLane="0" id="61" route="route0" type="Car" /><vehicle arrivalLane="1" color="green" depart="66.626204443" departLane="1" id="62" route="route0" type="Car" /><vehicle arrivalLane="1" color="green" depart="66.9373355776" departLane="1" id="63" route="route0" type="Car" /><vehicle arrivalLane="0" color="green" depart="69.9711499565" departLane="0" id="64" route="route0" type="Car" /><vehicle arrivalLane="0" color="green" depart="69.9711499565" departLane="0" id="65" route="route0" type="Car" /><vehicle arrivalLane="1" color="green" depart="69.9711499565" departLane="1" id="66" route="route0" type="Car" /><vehicle arrivalLane="0" color="green" depart="71.7687125114" departLane="0" id="67" route="route0" type="Car" /><vehicle arrivalLane="0" color="green" depart="71.7687125114" departLane="0" id="68" route="route0" type="Car" /><vehicle arrivalLane="1" color="green" depart="71.7687125114" departLane="1" id="69" route="route0" type="Car" /><vehicle arrivalLane="1" color="green" depart="72.6944173366" departLane="1" id="70" route="route0" type="Car" /><vehicle arrivalLane="1" color="green" depart="78.2193000866" departLane="1" id="71" route="route0" type="Car" /><vehicle arrivalLane="0" color="green" depart="88.6262218751" departLane="0" id="72" route="route0" type="Car" /><vehicle arrivalLane="0" color="green" depart="88.6262218751" departLane="0" id="73" route="route0" type="Car" /><vehicle arrivalLane="0" color="green" depart="88.6262218751" departLane="0" id="74" route="route0" type="Car" /><vehicle arrivalLane="0" color="green" depart="88.6262218751" departLane="0" id="75" route="route0" type="Car" /><vehicle arrivalLane="0" color="green" depart="88.6262218751" departLane="0" id="76" route="route0" type="Car" /><vehicle arrivalLane="0" color="green" depart="88.6262218751" departLane="0" id="77" route="route0" type="Car" /><vehicle arrivalLane="1" color="green" depart="88.6262218751" departLane="1" id="78" route="route0" type="Car" /><vehicle arrivalLane="1" color="green" depart="91.6188680136" departLane="1" id="79" route="route0" type="Car" /><vehicle arrivalLane="1" color="green" depart="94.7036679223" departLane="1" id="80" route="route0" type="Car" /><vehicle arrivalLane="0" color="green" depart="97.6458706402" departLane="0" id="81" route="route0" type="Car" /><vehicle arrivalLane="1" color="green" depart="97.6458706402" departLane="1" id="82" route="route0" type="Car" /><vehicle arrivalLane="0" color="green" depart="98.8379557825" departLane="0" id="83" route="route0" type="Car" /><vehicle arrivalLane="0" color="green" depart="98.8379557825" departLane="0" id="84" route="route0" type="Car" /><vehicle arrivalLane="0" color="red" depart="98.8379557825" departLane="0" id="vip" route="route0" type="CarVIP" /><vehicle arrivalLane="1" color="green" depart="98.8379557825" departLane="1" id="86" route="route0" type="Car" /><vehicle arrivalLane="0" color="green" depart="102.690314055" departLane="0" id="87" route="route0" type="Car" /><vehicle arrivalLane="0" color="green" depart="102.690314055" departLane="0" id="88" route="route0" type="Car" /><vehicle arrivalLane="0" color="green" depart="102.690314055" departLane="0" id="89" route="route0" type="Car" /><vehicle arrivalLane="1" color="green" depart="102.690314055" departLane="1" id="90" route="route0" type="Car" /><vehicle arrivalLane="1" color="green" depart="103.477667208" departLane="1" id="91" route="route0" type="Car" /><vehicle arrivalLane="1" color="green" depart="108.138971225" departLane="1" id="92" route="route0" type="Car" /><vehicle arrivalLane="1" color="green" depart="108.740922771" departLane="1" id="93" route="route0" type="Car" /><vehicle arrivalLane="0" color="green" depart="110.870963671" departLane="0" id="94" route="route0" type="Car" /><vehicle arrivalLane="0" color="green" depart="110.870963671" departLane="0" id="95" route="route0" type="Car" /><vehicle arrivalLane="1" color="green" depart="110.870963671" departLane="1" id="96" route="route0" type="Car" /><vehicle arrivalLane="0" color="green" depart="113.937724486" departLane="0" id="97" route="route0" type="Car" /><vehicle arrivalLane="1" color="green" depart="113.937724486" departLane="1" id="98" route="route0" type="Car" /><vehicle arrivalLane="1" color="green" depart="114.16187259" departLane="1" id="99" route="route0" type="Car" /><vehicle arrivalLane="0" color="green" depart="115.876311054" departLane="0" id="100" route="route0" type="Car" /><vehicle arrivalLane="0" color="green" depart="115.876311054" departLane="0" id="101" route="route0" type="Car" /><vehicle arrivalLane="1" color="green" depart="115.876311054" departLane="1" id="102" route="route0" type="Car" /><vehicle arrivalLane="0" color="green" depart="120.603237304" departLane="0" id="103" route="route0" type="Car" /><vehicle arrivalLane="1" color="green" depart="120.603237304" departLane="1" id="104" route="route0" type="Car" /><vehicle arrivalLane="1" color="green" depart="120.736969237" departLane="1" id="105" route="route0" type="Car" /><vehicle arrivalLane="1" color="green" depart="123.662196639" departLane="1" id="106" route="route0" type="Car" /><vehicle arrivalLane="1" color="green" depart="124.010169548" departLane="1" id="107" route="route0" type="Car" /><vehicle arrivalLane="1" color="green" depart="124.776341735" departLane="1" id="108" route="route0" type="Car" /><vehicle arrivalLane="0" color="green" depart="128.245922176" departLane="0" id="109" route="route0" type="Car" /><vehicle arrivalLane="0" color="green" depart="128.245922176" departLane="0" id="110" route="route0" type="Car" /><vehicle arrivalLane="0" color="green" depart="128.245922176" departLane="0" id="111" route="route0" type="Car" /><vehicle arrivalLane="0" color="green" depart="128.245922176" departLane="0" id="112" route="route0" type="Car" /><vehicle arrivalLane="1" color="green" depart="128.245922176" departLane="1" id="113" route="route0" type="Car" /><vehicle arrivalLane="0" color="green" depart="130.783759883" departLane="0" id="114" route="route0" type="Car" /><vehicle arrivalLane="0" color="green" depart="130.783759883" departLane="0" id="115" route="route0" type="Car" /><vehicle arrivalLane="1" color="green" depart="130.783759883" departLane="1" id="116" route="route0" type="Car" /><vehicle arrivalLane="1" color="green" depart="130.95409688" departLane="1" id="117" route="route0" type="Car" /><vehicle arrivalLane="1" color="green" depart="132.619036171" departLane="1" id="118" route="route0" type="Car" /><vehicle arrivalLane="0" color="green" depart="134.869186128" departLane="0" id="119" route="route0" type="Car" /><vehicle arrivalLane="0" color="green" depart="134.869186128" departLane="0" id="120" route="route0" type="Car" /><vehicle arrivalLane="0" color="green" depart="134.869186128" departLane="0" id="121" route="route0" type="Car" /><vehicle arrivalLane="0" color="green" depart="134.869186128" departLane="0" id="122" route="route0" type="Car" /><vehicle arrivalLane="1" color="green" depart="134.869186128" departLane="1" id="123" route="route0" type="Car" /><vehicle arrivalLane="0" color="green" depart="136.359994436" departLane="0" id="124" route="route0" type="Car" /><vehicle arrivalLane="1" color="green" depart="136.359994436" departLane="1" id="125" route="route0" type="Car" /><vehicle arrivalLane="0" color="green" depart="138.889407629" departLane="0" id="126" route="route0" type="Car" /><vehicle arrivalLane="0" color="green" depart="138.889407629" departLane="0" id="127" route="route0" type="Car" /><vehicle arrivalLane="0" color="green" depart="138.889407629" departLane="0" id="128" route="route0" type="Car" /><vehicle arrivalLane="0" color="green" depart="138.889407629" departLane="0" id="129" route="route0" type="Car" /><vehicle arrivalLane="1" color="green" depart="138.889407629" departLane="1" id="130" route="route0" type="Car" /><vehicle arrivalLane="1" color="green" depart="139.301193284" departLane="1" id="131" route="route0" type="Car" /><vehicle arrivalLane="0" color="green" depart="143.171855884" departLane="0" id="132" route="route0" type="Car" /><vehicle arrivalLane="1" color="green" depart="143.171855884" departLane="1" id="133" route="route0" type="Car" /><vehicle arrivalLane="0" color="green" depart="145.482308025" departLane="0" id="134" route="route0" type="Car" /><vehicle arrivalLane="1" color="green" depart="145.482308025" departLane="1" id="135" route="route0" type="Car" /><vehicle arrivalLane="0" color="green" depart="153.535088894" departLane="0" id="136" route="route0" type="Car" /><vehicle arrivalLane="0" color="green" depart="153.535088894" departLane="0" id="137" route="route0" type="Car" /><vehicle arrivalLane="0" color="green" depart="153.535088894" departLane="0" id="138" route="route0" type="Car" /><vehicle arrivalLane="0" color="green" depart="153.535088894" departLane="0" id="139" route="route0" type="Car" /><vehicle arrivalLane="0" color="green" depart="153.535088894" departLane="0" id="140" route="route0" type="Car" /><vehicle arrivalLane="1" color="green" depart="153.535088894" departLane="1" id="141" route="route0" type="Car" /><vehicle arrivalLane="0" color="green" depart="154.980573792" departLane="0" id="142" route="route0" type="Car" /><vehicle arrivalLane="1" color="green" depart="154.980573792" departLane="1" id="143" route="route0" type="Car" /><vehicle arrivalLane="0" color="green" depart="157.088744512" departLane="0" id="144" route="route0" type="Car" /><vehicle arrivalLane="1" color="green" depart="157.088744512" departLane="1" id="145" route="route0" type="Car" /><vehicle arrivalLane="0" color="green" depart="161.295303595" departLane="0" id="146" route="route0" type="Car" /><vehicle arrivalLane="0" color="green" depart="161.295303595" departLane="0" id="147" route="route0" type="Car" /><vehicle arrivalLane="1" color="green" depart="161.295303595" departLane="1" id="148" route="route0" type="Car" /><vehicle arrivalLane="1" color="green" depart="162.766331211" departLane="1" id="149" route="route0" type="Car" /><vehicle arrivalLane="1" color="green" depart="163.265079505" departLane="1" id="150" route="route0" type="Car" /><vehicle arrivalLane="1" color="green" depart="163.337587385" departLane="1" id="151" route="route0" type="Car" /><vehicle arrivalLane="0" color="green" depart="163.843348043" departLane="0" id="152" route="route0" type="Car" /><vehicle arrivalLane="1" color="green" depart="163.843348043" departLane="1" id="153" route="route0" type="Car" /><vehicle arrivalLane="0" color="green" depart="164.875063136" departLane="0" id="154" route="route0" type="Car" /><vehicle arrivalLane="1" color="green" depart="164.875063136" departLane="1" id="155" route="route0" type="Car" /><vehicle arrivalLane="0" color="green" depart="167.449872588" departLane="0" id="156" route="route0" type="Car" /><vehicle arrivalLane="1" color="green" depart="167.449872588" departLane="1" id="157" route="route0" type="Car" /><vehicle arrivalLane="1" color="green" depart="167.848611793" departLane="1" id="158" route="route0" type="Car" /><vehicle arrivalLane="0" color="green" depart="169.118637666" departLane="0" id="159" route="route0" type="Car" /><vehicle arrivalLane="1" color="green" depart="169.118637666" departLane="1" id="160" route="route0" type="Car" /><vehicle arrivalLane="1" color="green" depart="170.180655331" departLane="1" id="161" route="route0" type="Car" /><vehicle arrivalLane="1" color="green" depart="170.41509121" departLane="1" id="162" route="route0" type="Car" /><vehicle arrivalLane="1" color="green" depart="170.508484176" departLane="1" id="163" route="route0" type="Car" /><vehicle arrivalLane="0" color="green" depart="173.167736962" departLane="0" id="164" route="route0" type="Car" /><vehicle arrivalLane="0" color="green" depart="173.167736962" departLane="0" id="165" route="route0" type="Car" /><vehicle arrivalLane="0" color="green" depart="173.167736962" departLane="0" id="166" route="route0" type="Car" /><vehicle arrivalLane="1" color="green" depart="173.167736962" departLane="1" id="167" route="route0" type="Car" /><vehicle arrivalLane="1" color="green" depart="173.270483177" departLane="1" id="168" route="route0" type="Car" /><vehicle arrivalLane="0" color="green" depart="174.480675746" departLane="0" id="169" route="route0" type="Car" /><vehicle arrivalLane="0" color="green" depart="174.480675746" departLane="0" id="170" route="route0" type="Car" /><vehicle arrivalLane="1" color="green" depart="174.480675746" departLane="1" id="171" route="route0" type="Car" /><vehicle arrivalLane="1" color="green" depart="175.152281517" departLane="1" id="172" route="route0" type="Car" /><vehicle arrivalLane="1" color="green" depart="175.277048153" departLane="1" id="173" route="route0" type="Car" /><vehicle arrivalLane="0" color="green" depart="178.121567969" departLane="0" id="174" route="route0" type="Car" /><vehicle arrivalLane="0" color="green" depart="178.121567969" departLane="0" id="175" route="route0" type="Car" /><vehicle arrivalLane="1" color="green" depart="178.121567969" departLane="1" id="176" route="route0" type="Car" /><vehicle arrivalLane="0" color="green" depart="179.36637063" departLane="0" id="177" route="route0" type="Car" /><vehicle arrivalLane="1" color="green" depart="179.36637063" departLane="1" id="178" route="route0" type="Car" /><vehicle arrivalLane="0" color="green" depart="181.454899549" departLane="0" id="179" route="route0" type="Car" /><vehicle arrivalLane="1" color="green" depart="181.454899549" departLane="1" id="180" route="route0" type="Car" /><vehicle arrivalLane="1" color="green" depart="181.735042928" departLane="1" id="181" route="route0" type="Car" /><vehicle arrivalLane="1" color="green" depart="181.911543915" departLane="1" id="182" route="route0" type="Car" /><vehicle arrivalLane="0" color="green" depart="186.812299922" departLane="0" id="183" route="route0" type="Car" /><vehicle arrivalLane="1" color="green" depart="186.812299922" departLane="1" id="184" route="route0" type="Car" /><vehicle arrivalLane="1" color="green" depart="187.967057608" departLane="1" id="185" route="route0" type="Car" /><vehicle arrivalLane="1" color="green" depart="191.237272472" departLane="1" id="186" route="route0" type="Car" /><vehicle arrivalLane="1" color="green" depart="195.032232698" departLane="1" id="187" route="route0" type="Car" /><vehicle arrivalLane="1" color="green" depart="199.388312748" departLane="1" id="188" route="route0" type="Car" /><vehicle arrivalLane="1" color="green" depart="203.525780329" departLane="1" id="189" route="route0" type="Car" /><vehicle arrivalLane="1" color="green" depart="203.706521291" departLane="1" id="190" route="route0" type="Car" /><vehicle arrivalLane="1" color="green" depart="205.104920597" departLane="1" id="191" route="route0" type="Car" /><vehicle arrivalLane="1" color="green" depart="205.166227433" departLane="1" id="192" route="route0" type="Car" /><vehicle arrivalLane="1" color="green" depart="209.369809919" departLane="1" id="193" route="route0" type="Car" /><vehicle arrivalLane="1" color="green" depart="209.801318824" departLane="1" id="194" route="route0" type="Car" /><vehicle arrivalLane="1" color="green" depart="211.605624667" departLane="1" id="195" route="route0" type="Car" /><vehicle arrivalLane="1" color="green" depart="211.757308012" departLane="1" id="196" route="route0" type="Car" /><vehicle arrivalLane="1" color="green" depart="213.404685148" departLane="1" id="197" route="route0" type="Car" /><vehicle arrivalLane="1" color="green" depart="223.870820033" departLane="1" id="198" route="route0" type="Car" /><vehicle arrivalLane="1" color="green" depart="224.260800352" departLane="1" id="199" route="route0" type="Car" /></routes>