<routes><vType accel="2.9" decel="7.5" id="Car" length="4.3" maxSpeed="27.78" minGap="-1" sigma="0.0" tau="0" /><vType accel="2.9" decel="7.5" id="CarVIP" length="6.5" maxSpeed="27.78" minGap="-1" sigma="0.0" tau="0" /><route edges="1to2" id="route0" /><vehicle arrivalLane="1" color="green" depart="0.619207487112" departLane="1" id="0" route="route0" type="Car" /><vehicle arrivalLane="0" color="green" depart="1.12426918524" departLane="0" id="1" route="route0" type="Car" /><vehicle arrivalLane="1" color="green" depart="1.12426918524" departLane="1" id="2" route="route0" type="Car" /><vehicle arrivalLane="0" color="green" depart="5.3757354575" departLane="0" id="3" route="route0" type="Car" /><vehicle arrivalLane="1" color="green" depart="5.3757354575" departLane="1" id="4" route="route0" type="Car" /><vehicle arrivalLane="1" color="green" depart="7.49804004946" departLane="1" id="5" route="route0" type="Car" /><vehicle arrivalLane="1" color="green" depart="7.85823633198" departLane="1" id="6" route="route0" type="Car" /><vehicle arrivalLane="1" color="green" depart="10.0856830305" departLane="1" id="7" route="route0" type="Car" /><vehicle arrivalLane="1" color="green" depart="12.5740483702" departLane="1" id="8" route="route0" type="Car" /><vehicle arrivalLane="0" color="green" depart="14.4586852287" departLane="0" id="9" route="route0" type="Car" /><vehicle arrivalLane="1" color="green" depart="14.4586852287" departLane="1" id="10" route="route0" type="Car" /><vehicle arrivalLane="0" color="green" depart="17.3145802534" departLane="0" id="11" route="route0" type="Car" /><vehicle arrivalLane="0" color="green" depart="17.3145802534" departLane="0" id="12" route="route0" type="Car" /><vehicle arrivalLane="1" color="green" depart="17.3145802534" departLane="1" id="13" route="route0" type="Car" /><vehicle arrivalLane="0" color="green" depart="17.7614000656" departLane="0" id="14" route="route0" type="Car" /><vehicle arrivalLane="1" color="green" depart="17.7614000656" departLane="1" id="15" route="route0" type="Car" /><vehicle arrivalLane="1" color="green" depart="18.9085290686" departLane="1" id="16" route="route0" type="Car" /><vehicle arrivalLane="0" color="green" depart="19.3528581471" departLane="0" id="17" route="route0" type="Car" /><vehicle arrivalLane="1" color="green" depart="19.3528581471" departLane="1" id="18" route="route0" type="Car" /><vehicle arrivalLane="1" color="green" depart="19.6803432644" departLane="1" id="19" route="route0" type="Car" /><vehicle arrivalLane="0" color="green" depart="27.8939381238" departLane="0" id="20" route="route0" type="Car" /><vehicle arrivalLane="0" color="green" depart="27.8939381238" departLane="0" id="21" route="route0" type="Car" /><vehicle arrivalLane="0" color="green" depart="27.8939381238" departLane="0" id="22" route="route0" type="Car" /><vehicle arrivalLane="0" color="green" depart="27.8939381238" departLane="0" id="23" route="route0" type="Car" /><vehicle arrivalLane="1" color="green" depart="27.8939381238" departLane="1" id="24" route="route0" type="Car" /><vehicle arrivalLane="0" color="green" depart="28.1063150626" departLane="0" id="25" route="route0" type="Car" /><vehicle arrivalLane="1" color="green" depart="28.1063150626" departLane="1" id="26" route="route0" type="Car" /><vehicle arrivalLane="0" color="green" depart="36.2013327107" departLane="0" id="27" route="route0" type="Car" /><vehicle arrivalLane="0" color="green" depart="36.2013327107" departLane="0" id="28" route="route0" type="Car" /><vehicle arrivalLane="1" color="green" depart="36.2013327107" departLane="1" id="29" route="route0" type="Car" /><vehicle arrivalLane="1" color="green" depart="36.438347809" departLane="1" id="30" route="route0" type="Car" /><vehicle arrivalLane="1" color="green" depart="36.7552575734" departLane="1" id="31" route="route0" type="Car" /><vehicle arrivalLane="0" color="green" depart="38.3503057454" departLane="0" id="32" route="route0" type="Car" /><vehicle arrivalLane="1" color="green" depart="38.3503057454" departLane="1" id="33" route="route0" type="Car" /><vehicle arrivalLane="0" color="green" depart="39.6197370397" departLane="0" id="34" route="route0" type="Car" /><vehicle arrivalLane="1" color="green" depart="39.6197370397" departLane="1" id="35" route="route0" type="Car" /><vehicle arrivalLane="0" color="green" depart="41.1941240038" departLane="0" id="36" route="route0" type="Car" /><vehicle arrivalLane="0" color="green" depart="41.1941240038" departLane="0" id="37" route="route0" type="Car" /><vehicle arrivalLane="1" color="green" depart="41.1941240038" departLane="1" id="38" route="route0" type="Car" /><vehicle arrivalLane="1" color="green" depart="43.0071028542" departLane="1" id="39" route="route0" type="Car" /><vehicle arrivalLane="1" color="green" depart="43.2274705719" departLane="1" id="40" route="route0" type="Car" /><vehicle arrivalLane="0" color="green" depart="45.3338617357" departLane="0" id="41" route="route0" type="Car" /><vehicle arrivalLane="0" color="green" depart="45.3338617357" departLane="0" id="42" route="route0" type="Car" /><vehicle arrivalLane="1" color="green" depart="45.3338617357" departLane="1" id="43" route="route0" type="Car" /><vehicle arrivalLane="1" color="green" depart="45.5065942592" departLane="1" id="44" route="route0" type="Car" /><vehicle arrivalLane="1" color="green" depart="46.7195338172" departLane="1" id="45" route="route0" type="Car" /><vehicle arrivalLane="0" color="green" depart="50.5218806785" departLane="0" id="46" route="route0" type="Car" /><vehicle arrivalLane="0" color="green" depart="50.5218806785" departLane="0" id="47" route="route0" type="Car" /><vehicle arrivalLane="0" color="green" depart="50.5218806785" departLane="0" id="48" route="route0" type="Car" /><vehicle arrivalLane="1" color="green" depart="50.5218806785" departLane="1" id="49" route="route0" type="Car" /><vehicle arrivalLane="1" color="green" depart="52.3280975589" departLane="1" id="50" route="route0" type="Car" /><vehicle arrivalLane="0" color="green" depart="55.4511952721" departLane="0" id="51" route="route0" type="Car" /><vehicle arrivalLane="1" color="green" depart="55.4511952721" departLane="1" id="52" route="route0" type="Car" /><vehicle arrivalLane="0" color="green" depart="58.2509576689" departLane="0" id="53" route="route0" type="Car" /><vehicle arrivalLane="0" color="green" depart="58.2509576689" departLane="0" id="54" route="route0" type="Car" /><vehicle arrivalLane="0" color="green" depart="58.2509576689" departLane="0" id="55" route="route0" type="Car" /><vehicle arrivalLane="1" color="green" depart="58.2509576689" departLane="1" id="56" route="route0" type="Car" /><vehicle arrivalLane="1" color="green" depart="58.9146769648" departLane="1" id="57" route="route0" type="Car" /><vehicle arrivalLane="0" color="green" depart="60.3217653154" departLane="0" id="58" route="route0" type="Car" /><vehicle arrivalLane="1" color="green" depart="60.3217653154" departLane="1" id="59" route="route0" type="Car" /><vehicle arrivalLane="0" color="green" depart="66.3879984607" departLane="0" id="60" route="route0" type="Car" /><vehicle arrivalLane="0" color="green" depart="66.3879984607" departLane="0" id="61" route="route0" type="Car" /><vehicle arrivalLane="0" color="green" depart="66.3879984607" departLane="0" id="62" route="route0" type="Car" /><vehicle arrivalLane="0" color="green" depart="66.3879984607" departLane="0" id="63" route="route0" type="Car" /><vehicle arrivalLane="0" color="green" depart="66.3879984607" departLane="0" id="64" route="route0" type="Car" /><vehicle arrivalLane="0" color="green" depart="66.3879984607" departLane="0" id="65" route="route0" type="Car" /><vehicle arrivalLane="1" color="green" depart="66.3879984607" departLane="1" id="66" route="route0" type="Car" /><vehicle arrivalLane="0" color="green" depart="67.9833267476" departLane="0" id="67" route="route0" type="Car" /><vehicle arrivalLane="0" color="green" depart="67.9833267476" departLane="0" id="68" route="route0" type="Car" /><vehicle arrivalLane="1" color="green" depart="67.9833267476" departLane="1" id="69" route="route0" type="Car" /><vehicle arrivalLane="1" color="green" depart="68.0252736079" departLane="1" id="70" route="route0" type="Car" /><vehicle arrivalLane="1" color="green" depart="69.2962252937" departLane="1" id="71" route="route0" type="Car" /><vehicle arrivalLane="0" color="green" depart="69.9384693756" departLane="0" id="72" route="route0" type="Car" /><vehicle arrivalLane="0" color="green" depart="69.9384693756" departLane="0" id="73" route="route0" type="Car" /><vehicle arrivalLane="1" color="green" depart="69.9384693756" departLane="1" id="74" route="route0" type="Car" /><vehicle arrivalLane="0" color="green" depart="70.1291992211" departLane="0" id="75" route="route0" type="Car" /><vehicle arrivalLane="1" color="green" depart="70.1291992211" departLane="1" id="76" route="route0" type="Car" /><vehicle arrivalLane="1" color="green" depart="70.4018557806" departLane="1" id="77" route="route0" type="Car" /><vehicle arrivalLane="0" color="green" depart="79.3004005701" departLane="0" id="78" route="route0" type="Car" /><vehicle arrivalLane="0" color="green" depart="79.3004005701" departLane="0" id="79" route="route0" type="Car" /><vehicle arrivalLane="1" color="green" depart="79.3004005701" departLane="1" id="80" route="route0" type="Car" /><vehicle arrivalLane="0" color="green" depart="81.357452474" departLane="0" id="81" route="route0" type="Car" /><vehicle arrivalLane="0" color="green" depart="81.357452474" departLane="0" id="82" route="route0" type="Car" /><vehicle arrivalLane="0" color="green" depart="81.357452474" departLane="0" id="83" route="route0" type="Car" /><vehicle arrivalLane="1" color="green" depart="81.357452474" departLane="1" id="84" route="route0" type="Car" /><vehicle arrivalLane="0" color="green" depart="82.7957883021" departLane="0" id="85" route="route0" type="Car" /><vehicle arrivalLane="0" color="green" depart="82.7957883021" departLane="0" id="86" route="route0" type="Car" /><vehicle arrivalLane="1" color="green" depart="82.7957883021" departLane="1" id="87" route="route0" type="Car" /><vehicle arrivalLane="1" color="green" depart="84.278401238" departLane="1" id="88" route="route0" type="Car" /><vehicle arrivalLane="1" color="green" depart="85.4324041936" departLane="1" id="89" route="route0" type="Car" /><vehicle arrivalLane="1" color="green" depart="86.0458652637" departLane="1" id="90" route="route0" type="Car" /><vehicle arrivalLane="0" color="green" depart="93.5732239662" departLane="0" id="91" route="route0" type="Car" /><vehicle arrivalLane="0" color="green" depart="93.5732239662" departLane="0" id="92" route="route0" type="Car" /><vehicle arrivalLane="0" color="green" depart="93.5732239662" departLane="0" id="93" route="route0" type="Car" /><vehicle arrivalLane="0" color="green" depart="93.5732239662" departLane="0" id="94" route="route0" type="Car" /><vehicle arrivalLane="0" color="red" depart="93.5732239662" departLane="0" id="vip" route="route0" type="CarVIP" /><vehicle arrivalLane="1" color="green" depart="93.5732239662" departLane="1" id="96" route="route0" type="Car" /><vehicle arrivalLane="1" color="green" depart="97.7652689072" departLane="1" id="97" route="route0" type="Car" /><vehicle arrivalLane="0" color="green" depart="102.740491927" departLane="0" id="98" route="route0" type="Car" /><vehicle arrivalLane="1" color="green" depart="102.740491927" departLane="1" id="99" route="route0" type="Car" /><vehicle arrivalLane="0" color="green" depart="105.847605963" departLane="0" id="100" route="route0" type="Car" /><vehicle arrivalLane="0" color="green" depart="105.847605963" departLane="0" id="101" route="route0" type="Car" /><vehicle arrivalLane="0" color="green" depart="105.847605963" departLane="0" id="102" route="route0" type="Car" /><vehicle arrivalLane="1" color="green" depart="105.847605963" departLane="1" id="103" route="route0" type="Car" /><vehicle arrivalLane="0" color="green" depart="108.000807087" departLane="0" id="104" route="route0" type="Car" /><vehicle arrivalLane="1" color="green" depart="108.000807087" departLane="1" id="105" route="route0" type="Car" /><vehicle arrivalLane="0" color="green" depart="125.166896109" departLane="0" id="106" route="route0" type="Car" /><vehicle arrivalLane="0" color="green" depart="125.166896109" departLane="0" id="107" route="route0" type="Car" /><vehicle arrivalLane="0" color="green" depart="125.166896109" departLane="0" id="108" route="route0" type="Car" /><vehicle arrivalLane="0" color="green" depart="125.166896109" departLane="0" id="109" route="route0" type="Car" /><vehicle arrivalLane="0" color="green" depart="125.166896109" departLane="0" id="110" route="route0" type="Car" /><vehicle arrivalLane="0" color="green" depart="125.166896109" departLane="0" id="111" route="route0" type="Car" /><vehicle arrivalLane="0" color="green" depart="125.166896109" departLane="0" id="112" route="route0" type="Car" /><vehicle arrivalLane="0" color="green" depart="125.166896109" departLane="0" id="113" route="route0" type="Car" /><vehicle arrivalLane="0" color="green" depart="125.166896109" departLane="0" id="114" route="route0" type="Car" /><vehicle arrivalLane="1" color="green" depart="125.166896109" departLane="1" id="115" route="route0" type="Car" /><vehicle arrivalLane="1" color="green" depart="126.814332277" departLane="1" id="116" route="route0" type="Car" /><vehicle arrivalLane="0" color="green" depart="128.303962804" departLane="0" id="117" route="route0" type="Car" /><vehicle arrivalLane="1" color="green" depart="128.303962804" departLane="1" id="118" route="route0" type="Car" /><vehicle arrivalLane="0" color="green" depart="129.671931574" departLane="0" id="119" route="route0" type="Car" /><vehicle arrivalLane="0" color="green" depart="129.671931574" departLane="0" id="120" route="route0" type="Car" /><vehicle arrivalLane="1" color="green" depart="129.671931574" departLane="1" id="121" route="route0" type="Car" /><vehicle arrivalLane="1" color="green" depart="131.036995811" departLane="1" id="122" route="route0" type="Car" /><vehicle arrivalLane="0" color="green" depart="136.028022104" departLane="0" id="123" route="route0" type="Car" /><vehicle arrivalLane="0" color="green" depart="136.028022104" departLane="0" id="124" route="route0" type="Car" /><vehicle arrivalLane="1" color="green" depart="136.028022104" departLane="1" id="125" route="route0" type="Car" /><vehicle arrivalLane="1" color="green" depart="136.714643503" departLane="1" id="126" route="route0" type="Car" /><vehicle arrivalLane="1" color="green" depart="137.970761211" departLane="1" id="127" route="route0" type="Car" /><vehicle arrivalLane="1" color="green" depart="138.546790017" departLane="1" id="128" route="route0" type="Car" /><vehicle arrivalLane="0" color="green" depart="140.960428963" departLane="0" id="129" route="route0" type="Car" /><vehicle arrivalLane="1" color="green" depart="140.960428963" departLane="1" id="130" route="route0" type="Car" /><vehicle arrivalLane="1" color="green" depart="141.171219106" departLane="1" id="131" route="route0" type="Car" /><vehicle arrivalLane="1" color="green" depart="143.977350261" departLane="1" id="132" route="route0" type="Car" /><vehicle arrivalLane="1" color="green" depart="144.575347143" departLane="1" id="133" route="route0" type="Car" /><vehicle arrivalLane="0" color="green" depart="150.67695769" departLane="0" id="134" route="route0" type="Car" /><vehicle arrivalLane="0" color="green" depart="150.67695769" departLane="0" id="135" route="route0" type="Car" /><vehicle arrivalLane="0" color="green" depart="150.67695769" departLane="0" id="136" route="route0" type="Car" /><vehicle arrivalLane="1" color="green" depart="150.67695769" departLane="1" id="137" route="route0" type="Car" /><vehicle arrivalLane="0" color="green" depart="150.991457452" departLane="0" id="138" route="route0" type="Car" /><vehicle arrivalLane="1" color="green" depart="150.991457452" departLane="1" id="139" route="route0" type="Car" /><vehicle arrivalLane="0" color="green" depart="152.077575965" departLane="0" id="140" route="route0" type="Car" /><vehicle arrivalLane="1" color="green" depart="152.077575965" departLane="1" id="141" route="route0" type="Car" /><vehicle arrivalLane="0" color="green" depart="153.664670433" departLane="0" id="142" route="route0" type="Car" /><vehicle arrivalLane="1" color="green" depart="153.664670433" departLane="1" id="143" route="route0" type="Car" /><vehicle arrivalLane="0" color="green" depart="158.543280841" departLane="0" id="144" route="route0" type="Car" /><vehicle arrivalLane="0" color="green" depart="158.543280841" departLane="0" id="145" route="route0" type="Car" /><vehicle arrivalLane="1" color="green" depart="158.543280841" departLane="1" id="146" route="route0" type="Car" /><vehicle arrivalLane="1" color="green" depart="158.562978851" departLane="1" id="147" route="route0" type="Car" /><vehicle arrivalLane="1" color="green" depart="158.683525672" departLane="1" id="148" route="route0" type="Car" /><vehicle arrivalLane="0" color="green" depart="160.781238654" departLane="0" id="149" route="route0" type="Car" /><vehicle arrivalLane="0" color="green" depart="160.781238654" departLane="0" id="150" route="route0" type="Car" /><vehicle arrivalLane="1" color="green" depart="160.781238654" departLane="1" id="151" route="route0" type="Car" /><vehicle arrivalLane="1" color="green" depart="161.781446333" departLane="1" id="152" route="route0" type="Car" /><vehicle arrivalLane="1" color="green" depart="162.442181875" departLane="1" id="153" route="route0" type="Car" /><vehicle arrivalLane="0" color="green" depart="168.966021274" departLane="0" id="154" route="route0" type="Car" /><vehicle arrivalLane="0" color="green" depart="168.966021274" departLane="0" id="155" route="route0" type="Car" /><vehicle arrivalLane="0" color="green" depart="168.966021274" departLane="0" id="156" route="route0" type="Car" /><vehicle arrivalLane="0" color="green" depart="168.966021274" departLane="0" id="157" route="route0" type="Car" /><vehicle arrivalLane="1" color="green" depart="168.966021274" departLane="1" id="158" route="route0" type="Car" /><vehicle arrivalLane="1" color="green" depart="169.676586768" departLane="1" id="159" route="route0" type="Car" /><vehicle arrivalLane="1" color="green" depart="169.83906366" departLane="1" id="160" route="route0" type="Car" /><vehicle arrivalLane="0" color="green" depart="170.337724313" departLane="0" id="161" route="route0" type="Car" /><vehicle arrivalLane="1" color="green" depart="170.337724313" departLane="1" id="162" route="route0" type="Car" /><vehicle arrivalLane="0" color="green" depart="172.551427158" departLane="0" id="163" route="route0" type="Car" /><vehicle arrivalLane="1" color="green" depart="172.551427158" departLane="1" id="164" route="route0" type="Car" /><vehicle arrivalLane="0" color="green" depart="176.845003365" departLane="0" id="165" route="route0" type="Car" /><vehicle arrivalLane="0" color="green" depart="176.845003365" departLane="0" id="166" route="route0" type="Car" /><vehicle arrivalLane="1" color="green" depart="176.845003365" departLane="1" id="167" route="route0" type="Car" /><vehicle arrivalLane="1" color="green" depart="177.562185497" departLane="1" id="168" route="route0" type="Car" /><vehicle arrivalLane="1" color="green" depart="179.950996868" departLane="1" id="169" route="route0" type="Car" /><vehicle arrivalLane="0" color="green" depart="188.610120272" departLane="0" id="170" route="route0" type="Car" /><vehicle arrivalLane="0" color="green" depart="188.610120272" departLane="0" id="171" route="route0" type="Car" /><vehicle arrivalLane="0" color="green" depart="188.610120272" departLane="0" id="172" route="route0" type="Car" /><vehicle arrivalLane="0" color="green" depart="188.610120272" departLane="0" id="173" route="route0" type="Car" /><vehicle arrivalLane="0" color="green" depart="188.610120272" departLane="0" id="174" route="route0" type="Car" /><vehicle arrivalLane="0" color="green" depart="188.610120272" departLane="0" id="175" route="route0" type="Car" /><vehicle arrivalLane="1" color="green" depart="188.610120272" departLane="1" id="176" route="route0" type="Car" /><vehicle arrivalLane="1" color="green" depart="191.211649962" departLane="1" id="177" route="route0" type="Car" /><vehicle arrivalLane="1" color="green" depart="191.222204128" departLane="1" id="178" route="route0" type="Car" /><vehicle arrivalLane="1" color="green" depart="193.58837344" departLane="1" id="179" route="route0" type="Car" /><vehicle arrivalLane="1" color="green" depart="195.179603614" departLane="1" id="180" route="route0" type="Car" /><vehicle arrivalLane="0" color="green" depart="197.254233903" departLane="0" id="181" route="route0" type="Car" /><vehicle arrivalLane="0" color="green" depart="197.254233903" departLane="0" id="182" route="route0" type="Car" /><vehicle arrivalLane="0" color="green" depart="197.254233903" departLane="0" id="183" route="route0" type="Car" /><vehicle arrivalLane="1" color="green" depart="197.254233903" departLane="1" id="184" route="route0" type="Car" /><vehicle arrivalLane="0" color="green" depart="200.960802591" departLane="0" id="185" route="route0" type="Car" /><vehicle arrivalLane="0" color="green" depart="200.960802591" departLane="0" id="186" route="route0" type="Car" /><vehicle arrivalLane="1" color="green" depart="200.960802591" departLane="1" id="187" route="route0" type="Car" /><vehicle arrivalLane="1" color="green" depart="202.735842607" departLane="1" id="188" route="route0" type="Car" /><vehicle arrivalLane="1" color="green" depart="206.913833716" departLane="1" id="189" route="route0" type="Car" /><vehicle arrivalLane="1" color="green" depart="207.100499957" departLane="1" id="190" route="route0" type="Car" /><vehicle arrivalLane="1" color="green" depart="208.083533734" departLane="1" id="191" route="route0" type="Car" /><vehicle arrivalLane="1" color="green" depart="211.204130656" departLane="1" id="192" route="route0" type="Car" /><vehicle arrivalLane="1" color="green" depart="214.367596623" departLane="1" id="193" route="route0" type="Car" /><vehicle arrivalLane="1" color="green" depart="218.681910856" departLane="1" id="194" route="route0" type="Car" /><vehicle arrivalLane="1" color="green" depart="221.005666094" departLane="1" id="195" route="route0" type="Car" /><vehicle arrivalLane="1" color="green" depart="221.683513229" departLane="1" id="196" route="route0" type="Car" /><vehicle arrivalLane="1" color="green" depart="222.849883651" departLane="1" id="197" route="route0" type="Car" /><vehicle arrivalLane="1" color="green" depart="223.999545092" departLane="1" id="198" route="route0" type="Car" /><vehicle arrivalLane="1" color="green" depart="224.810790366" departLane="1" id="199" route="route0" type="Car" /></routes>