<routes><vType accel="2.9" decel="7.5" id="Car" length="4.3" maxSpeed="27.78" minGap="-1" sigma="0.0" tau="0" /><vType accel="2.9" decel="7.5" id="CarVIP" length="6.5" maxSpeed="27.78" minGap="-1" sigma="0.0" tau="0" /><route edges="1to2" id="route0" /><vehicle arrivalLane="0" color="green" depart="1.88218312631" departLane="0" id="0" route="route0" type="Car" /><vehicle arrivalLane="0" color="green" depart="1.88218312631" departLane="0" id="1" route="route0" type="Car" /><vehicle arrivalLane="1" color="green" depart="1.88218312631" departLane="1" id="2" route="route0" type="Car" /><vehicle arrivalLane="0" color="green" depart="8.45360314214" departLane="0" id="3" route="route0" type="Car" /><vehicle arrivalLane="0" color="green" depart="8.45360314214" departLane="0" id="4" route="route0" type="Car" /><vehicle arrivalLane="0" color="green" depart="8.45360314214" departLane="0" id="5" route="route0" type="Car" /><vehicle arrivalLane="0" color="green" depart="8.45360314214" departLane="0" id="6" route="route0" type="Car" /><vehicle arrivalLane="0" color="green" depart="8.45360314214" departLane="0" id="7" route="route0" type="Car" /><vehicle arrivalLane="1" color="green" depart="8.45360314214" departLane="1" id="8" route="route0" type="Car" /><vehicle arrivalLane="0" color="green" depart="8.75184051837" departLane="0" id="9" route="route0" type="Car" /><vehicle arrivalLane="1" color="green" depart="8.75184051837" departLane="1" id="10" route="route0" type="Car" /><vehicle arrivalLane="0" color="green" depart="12.4445070728" departLane="0" id="11" route="route0" type="Car" /><vehicle arrivalLane="0" color="green" depart="12.4445070728" departLane="0" id="12" route="route0" type="Car" /><vehicle arrivalLane="0" color="green" depart="12.4445070728" departLane="0" id="13" route="route0" type="Car" /><vehicle arrivalLane="1" color="green" depart="12.4445070728" departLane="1" id="14" route="route0" type="Car" /><vehicle arrivalLane="1" color="green" depart="12.5643849314" departLane="1" id="15" route="route0" type="Car" /><vehicle arrivalLane="1" color="green" depart="12.6242510661" departLane="1" id="16" route="route0" type="Car" /><vehicle arrivalLane="1" color="green" depart="16.4331304339" departLane="1" id="17" route="route0" type="Car" /><vehicle arrivalLane="0" color="green" depart="17.4911313846" departLane="0" id="18" route="route0" type="Car" /><vehicle arrivalLane="1" color="green" depart="17.4911313846" departLane="1" id="19" route="route0" type="Car" /><vehicle arrivalLane="1" color="green" depart="18.7253683074" departLane="1" id="20" route="route0" type="Car" /><vehicle arrivalLane="1" color="green" depart="19.6303509325" departLane="1" id="21" route="route0" type="Car" /><vehicle arrivalLane="0" color="green" depart="24.187360121" departLane="0" id="22" route="route0" type="Car" /><vehicle arrivalLane="1" color="green" depart="24.187360121" departLane="1" id="23" route="route0" type="Car" /><vehicle arrivalLane="0" color="green" depart="27.948334078" departLane="0" id="24" route="route0" type="Car" /><vehicle arrivalLane="0" color="green" depart="27.948334078" departLane="0" id="25" route="route0" type="Car" /><vehicle arrivalLane="0" color="green" depart="27.948334078" departLane="0" id="26" route="route0" type="Car" /><vehicle arrivalLane="1" color="green" depart="27.948334078" departLane="1" id="27" route="route0" type="Car" /><vehicle arrivalLane="0" color="green" depart="28.7328803997" departLane="0" id="28" route="route0" type="Car" /><vehicle arrivalLane="1" color="green" depart="28.7328803997" departLane="1" id="29" route="route0" type="Car" /><vehicle arrivalLane="1" color="green" depart="29.0670474234" departLane="1" id="30" route="route0" type="Car" /><vehicle arrivalLane="0" color="green" depart="39.1311827619" departLane="0" id="31" route="route0" type="Car" /><vehicle arrivalLane="0" color="green" depart="39.1311827619" departLane="0" id="32" route="route0" type="Car" /><vehicle arrivalLane="0" color="green" depart="39.1311827619" departLane="0" id="33" route="route0" type="Car" /><vehicle arrivalLane="0" color="green" depart="39.1311827619" departLane="0" id="34" route="route0" type="Car" /><vehicle arrivalLane="1" color="green" depart="39.1311827619" departLane="1" id="35" route="route0" type="Car" /><vehicle arrivalLane="0" color="green" depart="43.0018945384" departLane="0" id="36" route="route0" type="Car" /><vehicle arrivalLane="0" color="green" depart="43.0018945384" departLane="0" id="37" route="route0" type="Car" /><vehicle arrivalLane="0" color="green" depart="43.0018945384" departLane="0" id="38" route="route0" type="Car" /><vehicle arrivalLane="0" color="green" depart="43.0018945384" departLane="0" id="39" route="route0" type="Car" /><vehicle arrivalLane="0" color="green" depart="43.0018945384" departLane="0" id="40" route="route0" type="Car" /><vehicle arrivalLane="1" color="green" depart="43.0018945384" departLane="1" id="41" route="route0" type="Car" /><vehicle arrivalLane="1" color="green" depart="43.4817885823" departLane="1" id="42" route="route0" type="Car" /><vehicle arrivalLane="1" color="green" depart="44.3504553332" departLane="1" id="43" route="route0" type="Car" /><vehicle arrivalLane="0" color="green" depart="44.7261501557" departLane="0" id="44" route="route0" type="Car" /><vehicle arrivalLane="1" color="green" depart="44.7261501557" departLane="1" id="45" route="route0" type="Car" /><vehicle arrivalLane="0" color="green" depart="47.6772429144" departLane="0" id="46" route="route0" type="Car" /><vehicle arrivalLane="1" color="green" depart="47.6772429144" departLane="1" id="47" route="route0" type="Car" /><vehicle arrivalLane="1" color="green" depart="47.7132690173" departLane="1" id="48" route="route0" type="Car" /><vehicle arrivalLane="1" color="green" depart="47.7716447804" departLane="1" id="49" route="route0" type="Car" /><vehicle arrivalLane="0" color="green" depart="49.4451056596" departLane="0" id="50" route="route0" type="Car" /><vehicle arrivalLane="0" color="green" depart="49.4451056596" departLane="0" id="51" route="route0" type="Car" /><vehicle arrivalLane="1" color="green" depart="49.4451056596" departLane="1" id="52" route="route0" type="Car" /><vehicle arrivalLane="1" color="green" depart="51.0428079452" departLane="1" id="53" route="route0" type="Car" /><vehicle arrivalLane="0" color="green" depart="54.4943128144" departLane="0" id="54" route="route0" type="Car" /><vehicle arrivalLane="1" color="green" depart="54.4943128144" departLane="1" id="55" route="route0" type="Car" /><vehicle arrivalLane="1" color="green" depart="55.2663746991" departLane="1" id="56" route="route0" type="Car" /><vehicle arrivalLane="1" color="green" depart="56.0408058513" departLane="1" id="57" route="route0" type="Car" /><vehicle arrivalLane="1" color="green" depart="56.8622777559" departLane="1" id="58" route="route0" type="Car" /><vehicle arrivalLane="0" color="green" depart="62.0967981421" departLane="0" id="59" route="route0" type="Car" /><vehicle arrivalLane="0" color="green" depart="62.0967981421" departLane="0" id="60" route="route0" type="Car" /><vehicle arrivalLane="1" color="green" depart="62.0967981421" departLane="1" id="61" route="route0" type="Car" /><vehicle arrivalLane="0" color="green" depart="63.5568930934" departLane="0" id="62" route="route0" type="Car" /><vehicle arrivalLane="0" color="green" depart="63.5568930934" departLane="0" id="63" route="route0" type="Car" /><vehicle arrivalLane="1" color="green" depart="63.5568930934" departLane="1" id="64" route="route0" type="Car" /><vehicle arrivalLane="1" color="green" depart="63.5729090049" departLane="1" id="65" route="route0" type="Car" /><vehicle arrivalLane="0" color="green" depart="68.1233818046" departLane="0" id="66" route="route0" type="Car" /><vehicle arrivalLane="0" color="green" depart="68.1233818046" departLane="0" id="67" route="route0" type="Car" /><vehicle arrivalLane="1" color="green" depart="68.1233818046" departLane="1" id="68" route="route0" type="Car" /><vehicle arrivalLane="1" color="green" depart="68.5263819888" departLane="1" id="69" route="route0" type="Car" /><vehicle arrivalLane="0" color="green" depart="76.2737696877" departLane="0" id="70" route="route0" type="Car" /><vehicle arrivalLane="0" color="green" depart="76.2737696877" departLane="0" id="71" route="route0" type="Car" /><vehicle arrivalLane="0" color="green" depart="76.2737696877" departLane="0" id="72" route="route0" type="Car" /><vehicle arrivalLane="1" color="green" depart="76.2737696877" departLane="1" id="73" route="route0" type="Car" /><vehicle arrivalLane="1" color="green" depart="77.545679946" departLane="1" id="74" route="route0" type="Car" /><vehicle arrivalLane="0" color="green" depart="78.1972945151" departLane="0" id="75" route="route0" type="Car" /><vehicle arrivalLane="0" color="green" depart="78.1972945151" departLane="0" id="76" route="route0" type="Car" /><vehicle arrivalLane="1" color="green" depart="78.1972945151" departLane="1" id="77" route="route0" type="Car" /><vehicle arrivalLane="1" color="green" depart="79.7667405755" departLane="1" id="78" route="route0" type="Car" /><vehicle arrivalLane="0" color="green" depart="81.9402236581" departLane="0" id="79" route="route0" type="Car" /><vehicle arrivalLane="0" color="green" depart="81.9402236581" departLane="0" id="80" route="route0" type="Car" /><vehicle arrivalLane="1" color="green" depart="81.9402236581" departLane="1" id="81" route="route0" type="Car" /><vehicle arrivalLane="1" color="green" depart="82.3308269917" departLane="1" id="82" route="route0" type="Car" /><vehicle arrivalLane="0" color="green" depart="84.5758603715" departLane="0" id="83" route="route0" type="Car" /><vehicle arrivalLane="0" color="green" depart="84.5758603715" departLane="0" id="84" route="route0" type="Car" /><vehicle arrivalLane="1" color="green" depart="84.5758603715" departLane="1" id="85" route="route0" type="Car" /><vehicle arrivalLane="0" color="green" depart="85.2030274987" departLane="0" id="86" route="route0" type="Car" /><vehicle arrivalLane="1" color="green" depart="85.2030274987" departLane="1" id="87" route="route0" type="Car" /><vehicle arrivalLane="0" color="green" depart="86.4633428034" departLane="0" id="88" route="route0" type="Car" /><vehicle arrivalLane="1" color="green" depart="86.4633428034" departLane="1" id="89" route="route0" type="Car" /><vehicle arrivalLane="1" color="green" depart="86.6062256004" departLane="1" id="90" route="route0" type="Car" /><vehicle arrivalLane="1" color="green" depart="87.8696484094" departLane="1" id="91" route="route0" type="Car" /><vehicle arrivalLane="0" color="green" depart="93.1612029487" departLane="0" id="92" route="route0" type="Car" /><vehicle arrivalLane="0" color="green" depart="93.1612029487" departLane="0" id="93" route="route0" type="Car" /><vehicle arrivalLane="0" color="red" depart="93.1612029487" departLane="0" id="vip" route="route0" type="CarVIP" /><vehicle arrivalLane="0" color="green" depart="93.1612029487" departLane="0" id="95" route="route0" type="Car" /><vehicle arrivalLane="0" color="green" depart="93.1612029487" departLane="0" id="96" route="route0" type="Car" /><vehicle arrivalLane="1" color="green" depart="93.1612029487" departLane="1" id="97" route="route0" type="Car" /><vehicle arrivalLane="0" color="green" depart="98.9054606293" departLane="0" id="98" route="route0" type="Car" /><vehicle arrivalLane="0" color="green" depart="98.9054606293" departLane="0" id="99" route="route0" type="Car" /><vehicle arrivalLane="0" color="green" depart="98.9054606293" departLane="0" id="100" route="route0" type="Car" /><vehicle arrivalLane="0" color="green" depart="98.9054606293" departLane="0" id="101" route="route0" type="Car" /><vehicle arrivalLane="0" color="green" depart="98.9054606293" departLane="0" id="102" route="route0" type="Car" /><vehicle arrivalLane="0" color="green" depart="98.9054606293" departLane="0" id="103" route="route0" type="Car" /><vehicle arrivalLane="1" color="green" depart="98.9054606293" departLane="1" id="104" route="route0" type="Car" /><vehicle arrivalLane="0" color="green" depart="101.399144117" departLane="0" id="105" route="route0" type="Car" /><vehicle arrivalLane="1" color="green" depart="101.399144117" departLane="1" id="106" route="route0" type="Car" /><vehicle arrivalLane="0" color="green" depart="104.34198841" departLane="0" id="107" route="route0" type="Car" /><vehicle arrivalLane="0" color="green" depart="104.34198841" departLane="0" id="108" route="route0" type="Car" /><vehicle arrivalLane="0" color="green" depart="104.34198841" departLane="0" id="109" route="route0" type="Car" /><vehicle arrivalLane="1" color="green" depart="104.34198841" departLane="1" id="110" route="route0" type="Car" /><vehicle arrivalLane="0" color="green" depart="105.694102444" departLane="0" id="111" route="route0" type="Car" /><vehicle arrivalLane="1" color="green" depart="105.694102444" departLane="1" id="112" route="route0" type="Car" /><vehicle arrivalLane="0" color="green" depart="106.222963919" departLane="0" id="113" route="route0" type="Car" /><vehicle arrivalLane="1" color="green" depart="106.222963919" departLane="1" id="114" route="route0" type="Car" /><vehicle arrivalLane="1" color="green" depart="106.659739927" departLane="1" id="115" route="route0" type="Car" /><vehicle arrivalLane="1" color="green" depart="106.724520393" departLane="1" id="116" route="route0" type="Car" /><vehicle arrivalLane="1" color="green" depart="107.153813763" departLane="1" id="117" route="route0" type="Car" /><vehicle arrivalLane="1" color="green" depart="108.400883503" departLane="1" id="118" route="route0" type="Car" /><vehicle arrivalLane="1" color="green" depart="109.383199348" departLane="1" id="119" route="route0" type="Car" /><vehicle arrivalLane="0" color="green" depart="114.406029208" departLane="0" id="120" route="route0" type="Car" /><vehicle arrivalLane="0" color="green" depart="114.406029208" departLane="0" id="121" route="route0" type="Car" /><vehicle arrivalLane="0" color="green" depart="114.406029208" departLane="0" id="122" route="route0" type="Car" /><vehicle arrivalLane="1" color="green" depart="114.406029208" departLane="1" id="123" route="route0" type="Car" /><vehicle arrivalLane="0" color="green" depart="120.270565019" departLane="0" id="124" route="route0" type="Car" /><vehicle arrivalLane="0" color="green" depart="120.270565019" departLane="0" id="125" route="route0" type="Car" /><vehicle arrivalLane="0" color="green" depart="120.270565019" departLane="0" id="126" route="route0" type="Car" /><vehicle arrivalLane="0" color="green" depart="120.270565019" departLane="0" id="127" route="route0" type="Car" /><vehicle arrivalLane="1" color="green" depart="120.270565019" departLane="1" id="128" route="route0" type="Car" /><vehicle arrivalLane="0" color="green" depart="122.092881748" departLane="0" id="129" route="route0" type="Car" /><vehicle arrivalLane="1" color="green" depart="122.092881748" departLane="1" id="130" route="route0" type="Car" /><vehicle arrivalLane="0" color="green" depart="122.845259966" departLane="0" id="131" route="route0" type="Car" /><vehicle arrivalLane="1" color="green" depart="122.845259966" departLane="1" id="132" route="route0" type="Car" /><vehicle arrivalLane="0" color="green" depart="125.35833565" departLane="0" id="133" route="route0" type="Car" /><vehicle arrivalLane="0" color="green" depart="125.35833565" departLane="0" id="134" route="route0" type="Car" /><vehicle arrivalLane="0" color="green" depart="125.35833565" departLane="0" id="135" route="route0" type="Car" /><vehicle arrivalLane="1" color="green" depart="125.35833565" departLane="1" id="136" route="route0" type="Car" /><vehicle arrivalLane="1" color="green" depart="125.652114" departLane="1" id="137" route="route0" type="Car" /><vehicle arrivalLane="1" color="green" depart="127.925987734" departLane="1" id="138" route="route0" type="Car" /><vehicle arrivalLane="0" color="green" depart="128.23473322" departLane="0" id="139" route="route0" type="Car" /><vehicle arrivalLane="0" color="green" depart="128.23473322" departLane="0" id="140" route="route0" type="Car" /><vehicle arrivalLane="1" color="green" depart="128.23473322" departLane="1" id="141" route="route0" type="Car" /><vehicle arrivalLane="1" color="green" depart="129.311745747" departLane="1" id="142" route="route0" type="Car" /><vehicle arrivalLane="1" color="green" depart="129.576974212" departLane="1" id="143" route="route0" type="Car" /><vehicle arrivalLane="0" color="green" depart="130.809236963" departLane="0" id="144" route="route0" type="Car" /><vehicle arrivalLane="0" color="green" depart="130.809236963" departLane="0" id="145" route="route0" type="Car" /><vehicle arrivalLane="1" color="green" depart="130.809236963" departLane="1" id="146" route="route0" type="Car" /><vehicle arrivalLane="0" color="green" depart="132.675409968" departLane="0" id="147" route="route0" type="Car" /><vehicle arrivalLane="1" color="green" depart="132.675409968" departLane="1" id="148" route="route0" type="Car" /><vehicle arrivalLane="1" color="green" depart="133.153840119" departLane="1" id="149" route="route0" type="Car" /><vehicle arrivalLane="1" color="green" depart="133.696316259" departLane="1" id="150" route="route0" type="Car" /><vehicle arrivalLane="1" color="green" depart="134.632833731" departLane="1" id="151" route="route0" type="Car" /><vehicle arrivalLane="1" color="green" depart="135.840202158" departLane="1" id="152" route="route0" type="Car" /><vehicle arrivalLane="0" color="green" depart="138.750172197" departLane="0" id="153" route="route0" type="Car" /><vehicle arrivalLane="1" color="green" depart="138.750172197" departLane="1" id="154" route="route0" type="Car" /><vehicle arrivalLane="0" color="green" depart="141.363484018" departLane="0" id="155" route="route0" type="Car" /><vehicle arrivalLane="0" color="green" depart="141.363484018" departLane="0" id="156" route="route0" type="Car" /><vehicle arrivalLane="1" color="green" depart="141.363484018" departLane="1" id="157" route="route0" type="Car" /><vehicle arrivalLane="1" color="green" depart="143.232785185" departLane="1" id="158" route="route0" type="Car" /><vehicle arrivalLane="0" color="green" depart="148.420628285" departLane="0" id="159" route="route0" type="Car" /><vehicle arrivalLane="0" color="green" depart="148.420628285" departLane="0" id="160" route="route0" type="Car" /><vehicle arrivalLane="1" color="green" depart="148.420628285" departLane="1" id="161" route="route0" type="Car" /><vehicle arrivalLane="1" color="green" depart="148.518668819" departLane="1" id="162" route="route0" type="Car" /><vehicle arrivalLane="0" color="green" depart="149.672944637" departLane="0" id="163" route="route0" type="Car" /><vehicle arrivalLane="1" color="green" depart="149.672944637" departLane="1" id="164" route="route0" type="Car" /><vehicle arrivalLane="0" color="green" depart="154.291814105" departLane="0" id="165" route="route0" type="Car" /><vehicle arrivalLane="0" color="green" depart="154.291814105" departLane="0" id="166" route="route0" type="Car" /><vehicle arrivalLane="0" color="green" depart="154.291814105" departLane="0" id="167" route="route0" type="Car" /><vehicle arrivalLane="0" color="green" depart="154.291814105" departLane="0" id="168" route="route0" type="Car" /><vehicle arrivalLane="0" color="green" depart="154.291814105" departLane="0" id="169" route="route0" type="Car" /><vehicle arrivalLane="0" color="green" depart="154.291814105" departLane="0" id="170" route="route0" type="Car" /><vehicle arrivalLane="0" color="green" depart="154.291814105" departLane="0" id="171" route="route0" type="Car" /><vehicle arrivalLane="1" color="green" depart="154.291814105" departLane="1" id="172" route="route0" type="Car" /><vehicle arrivalLane="1" color="green" depart="154.446323598" departLane="1" id="173" route="route0" type="Car" /><vehicle arrivalLane="0" color="green" depart="162.114811745" departLane="0" id="174" route="route0" type="Car" /><vehicle arrivalLane="0" color="green" depart="162.114811745" departLane="0" id="175" route="route0" type="Car" /><vehicle arrivalLane="0" color="green" depart="162.114811745" departLane="0" id="176" route="route0" type="Car" /><vehicle arrivalLane="0" color="green" depart="162.114811745" departLane="0" id="177" route="route0" type="Car" /><vehicle arrivalLane="1" color="green" depart="162.114811745" departLane="1" id="178" route="route0" type="Car" /><vehicle arrivalLane="1" color="green" depart="162.257722111" departLane="1" id="179" route="route0" type="Car" /><vehicle arrivalLane="1" color="green" depart="162.825769541" departLane="1" id="180" route="route0" type="Car" /><vehicle arrivalLane="0" color="green" depart="163.190802514" departLane="0" id="181" route="route0" type="Car" /><vehicle arrivalLane="1" color="green" depart="163.190802514" departLane="1" id="182" route="route0" type="Car" /><vehicle arrivalLane="1" color="green" depart="164.675862359" departLane="1" id="183" route="route0" type="Car" /><vehicle arrivalLane="1" color="green" depart="166.209871968" departLane="1" id="184" route="route0" type="Car" /><vehicle arrivalLane="1" color="green" depart="169.601981606" departLane="1" id="185" route="route0" type="Car" /><vehicle arrivalLane="1" color="green" depart="171.125004877" departLane="1" id="186" route="route0" type="Car" /><vehicle arrivalLane="1" color="green" depart="172.375601656" departLane="1" id="187" route="route0" type="Car" /><vehicle arrivalLane="1" color="green" depart="173.867263906" departLane="1" id="188" route="route0" type="Car" /><vehicle arrivalLane="1" color="green" depart="176.730264011" departLane="1" id="189" route="route0" type="Car" /><vehicle arrivalLane="1" color="green" depart="183.122878402" departLane="1" id="190" route="route0" type="Car" /><vehicle arrivalLane="1" color="green" depart="186.27655342" departLane="1" id="191" route="route0" type="Car" /><vehicle arrivalLane="1" color="green" depart="187.621270662" departLane="1" id="192" route="route0" type="Car" /><vehicle arrivalLane="1" color="green" depart="190.726137554" departLane="1" id="193" route="route0" type="Car" /><vehicle arrivalLane="1" color="green" depart="194.162447959" departLane="1" id="194" route="route0" type="Car" /><vehicle arrivalLane="1" color="green" depart="201.809980353" departLane="1" id="195" route="route0" type="Car" /><vehicle arrivalLane="1" color="green" depart="202.409485134" departLane="1" id="196" route="route0" type="Car" /><vehicle arrivalLane="1" color="green" depart="204.301874383" departLane="1" id="197" route="route0" type="Car" /><vehicle arrivalLane="1" color="green" depart="204.486400877" departLane="1" id="198" route="route0" type="Car" /><vehicle arrivalLane="1" color="green" depart="207.055432351" departLane="1" id="199" route="route0" type="Car" /></routes>