<routes><vType accel="2.9" decel="7.5" id="Car" length="4.3" maxSpeed="27.78" minGap="-1" sigma="0.0" tau="0" /><vType accel="2.9" decel="7.5" id="CarVIP" length="6.5" maxSpeed="27.78" minGap="-1" sigma="0.0" tau="0" /><route edges="1to2" id="route0" /><vehicle arrivalLane="0" color="green" depart="2.95113091926" departLane="0" id="0" route="route0" type="Car" /><vehicle arrivalLane="1" color="green" depart="2.95113091926" departLane="1" id="1" route="route0" type="Car" /><vehicle arrivalLane="0" color="green" depart="5.17212105649" departLane="0" id="2" route="route0" type="Car" /><vehicle arrivalLane="0" color="green" depart="5.17212105649" departLane="0" id="3" route="route0" type="Car" /><vehicle arrivalLane="1" color="green" depart="5.17212105649" departLane="1" id="4" route="route0" type="Car" /><vehicle arrivalLane="0" color="green" depart="10.0755979254" departLane="0" id="5" route="route0" type="Car" /><vehicle arrivalLane="0" color="green" depart="10.0755979254" departLane="0" id="6" route="route0" type="Car" /><vehicle arrivalLane="0" color="green" depart="10.0755979254" departLane="0" id="7" route="route0" type="Car" /><vehicle arrivalLane="1" color="green" depart="10.0755979254" departLane="1" id="8" route="route0" type="Car" /><vehicle arrivalLane="1" color="green" depart="12.0799787999" departLane="1" id="9" route="route0" type="Car" /><vehicle arrivalLane="0" color="green" depart="12.2195754307" departLane="0" id="10" route="route0" type="Car" /><vehicle arrivalLane="1" color="green" depart="12.2195754307" departLane="1" id="11" route="route0" type="Car" /><vehicle arrivalLane="1" color="green" depart="12.7285872869" departLane="1" id="12" route="route0" type="Car" /><vehicle arrivalLane="0" color="green" depart="18.1477197329" departLane="0" id="13" route="route0" type="Car" /><vehicle arrivalLane="0" color="green" depart="18.1477197329" departLane="0" id="14" route="route0" type="Car" /><vehicle arrivalLane="1" color="green" depart="18.1477197329" departLane="1" id="15" route="route0" type="Car" /><vehicle arrivalLane="1" color="green" depart="18.5321179157" departLane="1" id="16" route="route0" type="Car" /><vehicle arrivalLane="0" color="green" depart="23.5886706208" departLane="0" id="17" route="route0" type="Car" /><vehicle arrivalLane="1" color="green" depart="23.5886706208" departLane="1" id="18" route="route0" type="Car" /><vehicle arrivalLane="0" color="green" depart="26.4227907046" departLane="0" id="19" route="route0" type="Car" /><vehicle arrivalLane="0" color="green" depart="26.4227907046" departLane="0" id="20" route="route0" type="Car" /><vehicle arrivalLane="1" color="green" depart="26.4227907046" departLane="1" id="21" route="route0" type="Car" /><vehicle arrivalLane="1" color="green" depart="27.9623593943" departLane="1" id="22" route="route0" type="Car" /><vehicle arrivalLane="0" color="green" depart="32.3884675008" departLane="0" id="23" route="route0" type="Car" /><vehicle arrivalLane="0" color="green" depart="32.3884675008" departLane="0" id="24" route="route0" type="Car" /><vehicle arrivalLane="0" color="green" depart="32.3884675008" departLane="0" id="25" route="route0" type="Car" /><vehicle arrivalLane="1" color="green" depart="32.3884675008" departLane="1" id="26" route="route0" type="Car" /><vehicle arrivalLane="1" color="green" depart="33.5325052863" departLane="1" id="27" route="route0" type="Car" /><vehicle arrivalLane="1" color="green" depart="33.7936954509" departLane="1" id="28" route="route0" type="Car" /><vehicle arrivalLane="0" color="green" depart="36.6246880959" departLane="0" id="29" route="route0" type="Car" /><vehicle arrivalLane="0" color="green" depart="36.6246880959" departLane="0" id="30" route="route0" type="Car" /><vehicle arrivalLane="1" color="green" depart="36.6246880959" departLane="1" id="31" route="route0" type="Car" /><vehicle arrivalLane="1" color="green" depart="36.7524105405" departLane="1" id="32" route="route0" type="Car" /><vehicle arrivalLane="0" color="green" depart="40.4921965819" departLane="0" id="33" route="route0" type="Car" /><vehicle arrivalLane="1" color="green" depart="40.4921965819" departLane="1" id="34" route="route0" type="Car" /><vehicle arrivalLane="1" color="green" depart="42.0785260604" departLane="1" id="35" route="route0" type="Car" /><vehicle arrivalLane="1" color="green" depart="45.9849951578" departLane="1" id="36" route="route0" type="Car" /><vehicle arrivalLane="0" color="green" depart="47.4744823156" departLane="0" id="37" route="route0" type="Car" /><vehicle arrivalLane="1" color="green" depart="47.4744823156" departLane="1" id="38" route="route0" type="Car" /><vehicle arrivalLane="0" color="green" depart="48.9825342065" departLane="0" id="39" route="route0" type="Car" /><vehicle arrivalLane="1" color="green" depart="48.9825342065" departLane="1" id="40" route="route0" type="Car" /><vehicle arrivalLane="1" color="green" depart="49.6703363251" departLane="1" id="41" route="route0" type="Car" /><vehicle arrivalLane="0" color="green" depart="54.5628834644" departLane="0" id="42" route="route0" type="Car" /><vehicle arrivalLane="0" color="green" depart="54.5628834644" departLane="0" id="43" route="route0" type="Car" /><vehicle arrivalLane="0" color="green" depart="54.5628834644" departLane="0" id="44" route="route0" type="Car" /><vehicle arrivalLane="0" color="green" depart="54.5628834644" departLane="0" id="45" route="route0" type="Car" /><vehicle arrivalLane="0" color="green" depart="54.5628834644" departLane="0" id="46" route="route0" type="Car" /><vehicle arrivalLane="0" color="green" depart="54.5628834644" departLane="0" id="47" route="route0" type="Car" /><vehicle arrivalLane="1" color="green" depart="54.5628834644" departLane="1" id="48" route="route0" type="Car" /><vehicle arrivalLane="0" color="green" depart="57.9509676669" departLane="0" id="49" route="route0" type="Car" /><vehicle arrivalLane="1" color="green" depart="57.9509676669" departLane="1" id="50" route="route0" type="Car" /><vehicle arrivalLane="1" color="green" depart="58.4652332039" departLane="1" id="51" route="route0" type="Car" /><vehicle arrivalLane="0" color="green" depart="61.1424155106" departLane="0" id="52" route="route0" type="Car" /><vehicle arrivalLane="1" color="green" depart="61.1424155106" departLane="1" id="53" route="route0" type="Car" /><vehicle arrivalLane="1" color="green" depart="62.4273897458" departLane="1" id="54" route="route0" type="Car" /><vehicle arrivalLane="0" color="green" depart="65.58529087" departLane="0" id="55" route="route0" type="Car" /><vehicle arrivalLane="0" color="green" depart="65.58529087" departLane="0" id="56" route="route0" type="Car" /><vehicle arrivalLane="0" color="green" depart="65.58529087" departLane="0" id="57" route="route0" type="Car" /><vehicle arrivalLane="1" color="green" depart="65.58529087" departLane="1" id="58" route="route0" type="Car" /><vehicle arrivalLane="1" color="green" depart="66.039996249" departLane="1" id="59" route="route0" type="Car" /><vehicle arrivalLane="0" color="green" depart="67.3072811915" departLane="0" id="60" route="route0" type="Car" /><vehicle arrivalLane="1" color="green" depart="67.3072811915" departLane="1" id="61" route="route0" type="Car" /><vehicle arrivalLane="1" color="green" depart="71.5276045549" departLane="1" id="62" route="route0" type="Car" /><vehicle arrivalLane="1" color="green" depart="72.842756125" departLane="1" id="63" route="route0" type="Car" /><vehicle arrivalLane="0" color="green" depart="95.3633792306" departLane="0" id="64" route="route0" type="Car" /><vehicle arrivalLane="0" color="green" depart="95.3633792306" departLane="0" id="65" route="route0" type="Car" /><vehicle arrivalLane="0" color="green" depart="95.3633792306" departLane="0" id="66" route="route0" type="Car" /><vehicle arrivalLane="0" color="green" depart="95.3633792306" departLane="0" id="67" route="route0" type="Car" /><vehicle arrivalLane="0" color="green" depart="95.3633792306" departLane="0" id="68" route="route0" type="Car" /><vehicle arrivalLane="0" color="green" depart="95.3633792306" departLane="0" id="69" route="route0" type="Car" /><vehicle arrivalLane="0" color="green" depart="95.3633792306" departLane="0" id="70" route="route0" type="Car" /><vehicle arrivalLane="0" color="green" depart="95.3633792306" departLane="0" id="71" route="route0" type="Car" /><vehicle arrivalLane="0" color="green" depart="95.3633792306" departLane="0" id="72" route="route0" type="Car" /><vehicle arrivalLane="0" color="green" depart="95.3633792306" departLane="0" id="73" route="route0" type="Car" /><vehicle arrivalLane="0" color="green" depart="95.3633792306" departLane="0" id="74" route="route0" type="Car" /><vehicle arrivalLane="0" color="green" depart="95.3633792306" departLane="0" id="75" route="route0" type="Car" /><vehicle arrivalLane="0" color="green" depart="95.3633792306" departLane="0" id="76" route="route0" type="Car" /><vehicle arrivalLane="0" color="green" depart="95.3633792306" departLane="0" id="77" route="route0" type="Car" /><vehicle arrivalLane="0" color="green" depart="95.3633792306" departLane="0" id="78" route="route0" type="Car" /><vehicle arrivalLane="1" color="green" depart="95.3633792306" departLane="1" id="79" route="route0" type="Car" /><vehicle arrivalLane="1" color="green" depart="96.5770637451" departLane="1" id="80" route="route0" type="Car" /><vehicle arrivalLane="0" color="green" depart="97.8270088913" departLane="0" id="81" route="route0" type="Car" /><vehicle arrivalLane="1" color="green" depart="97.8270088913" departLane="1" id="82" route="route0" type="Car" /><vehicle arrivalLane="0" color="green" depart="101.97202054" departLane="0" id="83" route="route0" type="Car" /><vehicle arrivalLane="0" color="green" depart="101.97202054" departLane="0" id="84" route="route0" type="Car" /><vehicle arrivalLane="0" color="red" depart="101.97202054" departLane="0" id="vip" route="route0" type="CarVIP" /><vehicle arrivalLane="1" color="green" depart="101.97202054" departLane="1" id="86" route="route0" type="Car" /><vehicle arrivalLane="1" color="green" depart="102.127384018" departLane="1" id="87" route="route0" type="Car" /><vehicle arrivalLane="0" color="green" depart="103.52683484" departLane="0" id="88" route="route0" type="Car" /><vehicle arrivalLane="0" color="green" depart="103.52683484" departLane="0" id="89" route="route0" type="Car" /><vehicle arrivalLane="1" color="green" depart="103.52683484" departLane="1" id="90" route="route0" type="Car" /><vehicle arrivalLane="0" color="green" depart="105.918273966" departLane="0" id="91" route="route0" type="Car" /><vehicle arrivalLane="0" color="green" depart="105.918273966" departLane="0" id="92" route="route0" type="Car" /><vehicle arrivalLane="1" color="green" depart="105.918273966" departLane="1" id="93" route="route0" type="Car" /><vehicle arrivalLane="0" color="green" depart="106.682403799" departLane="0" id="94" route="route0" type="Car" /><vehicle arrivalLane="1" color="green" depart="106.682403799" departLane="1" id="95" route="route0" type="Car" /><vehicle arrivalLane="1" color="green" depart="107.299917399" departLane="1" id="96" route="route0" type="Car" /><vehicle arrivalLane="1" color="green" depart="107.642983962" departLane="1" id="97" route="route0" type="Car" /><vehicle arrivalLane="0" color="green" depart="117.480568242" departLane="0" id="98" route="route0" type="Car" /><vehicle arrivalLane="0" color="green" depart="117.480568242" departLane="0" id="99" route="route0" type="Car" /><vehicle arrivalLane="1" color="green" depart="117.480568242" departLane="1" id="100" route="route0" type="Car" /><vehicle arrivalLane="1" color="green" depart="117.691388358" departLane="1" id="101" route="route0" type="Car" /><vehicle arrivalLane="1" color="green" depart="117.952033249" departLane="1" id="102" route="route0" type="Car" /><vehicle arrivalLane="0" color="green" depart="119.884544421" departLane="0" id="103" route="route0" type="Car" /><vehicle arrivalLane="1" color="green" depart="119.884544421" departLane="1" id="104" route="route0" type="Car" /><vehicle arrivalLane="1" color="green" depart="120.464998212" departLane="1" id="105" route="route0" type="Car" /><vehicle arrivalLane="0" color="green" depart="124.51541836" departLane="0" id="106" route="route0" type="Car" /><vehicle arrivalLane="0" color="green" depart="124.51541836" departLane="0" id="107" route="route0" type="Car" /><vehicle arrivalLane="0" color="green" depart="124.51541836" departLane="0" id="108" route="route0" type="Car" /><vehicle arrivalLane="0" color="green" depart="124.51541836" departLane="0" id="109" route="route0" type="Car" /><vehicle arrivalLane="0" color="green" depart="124.51541836" departLane="0" id="110" route="route0" type="Car" /><vehicle arrivalLane="1" color="green" depart="124.51541836" departLane="1" id="111" route="route0" type="Car" /><vehicle arrivalLane="0" color="green" depart="124.727480121" departLane="0" id="112" route="route0" type="Car" /><vehicle arrivalLane="1" color="green" depart="124.727480121" departLane="1" id="113" route="route0" type="Car" /><vehicle arrivalLane="1" color="green" depart="125.13059674" departLane="1" id="114" route="route0" type="Car" /><vehicle arrivalLane="1" color="green" depart="127.971331782" departLane="1" id="115" route="route0" type="Car" /><vehicle arrivalLane="0" color="green" depart="132.679008102" departLane="0" id="116" route="route0" type="Car" /><vehicle arrivalLane="0" color="green" depart="132.679008102" departLane="0" id="117" route="route0" type="Car" /><vehicle arrivalLane="0" color="green" depart="132.679008102" departLane="0" id="118" route="route0" type="Car" /><vehicle arrivalLane="1" color="green" depart="132.679008102" departLane="1" id="119" route="route0" type="Car" /><vehicle arrivalLane="0" color="green" depart="136.237121125" departLane="0" id="120" route="route0" type="Car" /><vehicle arrivalLane="1" color="green" depart="136.237121125" departLane="1" id="121" route="route0" type="Car" /><vehicle arrivalLane="0" color="green" depart="138.73249044" departLane="0" id="122" route="route0" type="Car" /><vehicle arrivalLane="0" color="green" depart="138.73249044" departLane="0" id="123" route="route0" type="Car" /><vehicle arrivalLane="1" color="green" depart="138.73249044" departLane="1" id="124" route="route0" type="Car" /><vehicle arrivalLane="1" color="green" depart="139.399452021" departLane="1" id="125" route="route0" type="Car" /><vehicle arrivalLane="0" color="green" depart="140.816951072" departLane="0" id="126" route="route0" type="Car" /><vehicle arrivalLane="1" color="green" depart="140.816951072" departLane="1" id="127" route="route0" type="Car" /><vehicle arrivalLane="1" color="green" depart="142.518676083" departLane="1" id="128" route="route0" type="Car" /><vehicle arrivalLane="0" color="green" depart="142.751321833" departLane="0" id="129" route="route0" type="Car" /><vehicle arrivalLane="1" color="green" depart="142.751321833" departLane="1" id="130" route="route0" type="Car" /><vehicle arrivalLane="0" color="green" depart="143.657027678" departLane="0" id="131" route="route0" type="Car" /><vehicle arrivalLane="1" color="green" depart="143.657027678" departLane="1" id="132" route="route0" type="Car" /><vehicle arrivalLane="1" color="green" depart="144.154737959" departLane="1" id="133" route="route0" type="Car" /><vehicle arrivalLane="1" color="green" depart="145.726864414" departLane="1" id="134" route="route0" type="Car" /><vehicle arrivalLane="1" color="green" depart="147.593951774" departLane="1" id="135" route="route0" type="Car" /><vehicle arrivalLane="1" color="green" depart="147.663311261" departLane="1" id="136" route="route0" type="Car" /><vehicle arrivalLane="1" color="green" depart="148.537814854" departLane="1" id="137" route="route0" type="Car" /><vehicle arrivalLane="0" color="green" depart="153.454797518" departLane="0" id="138" route="route0" type="Car" /><vehicle arrivalLane="1" color="green" depart="153.454797518" departLane="1" id="139" route="route0" type="Car" /><vehicle arrivalLane="0" color="green" depart="155.655314467" departLane="0" id="140" route="route0" type="Car" /><vehicle arrivalLane="1" color="green" depart="155.655314467" departLane="1" id="141" route="route0" type="Car" /><vehicle arrivalLane="1" color="green" depart="157.380780104" departLane="1" id="142" route="route0" type="Car" /><vehicle arrivalLane="0" color="green" depart="160.489568894" departLane="0" id="143" route="route0" type="Car" /><vehicle arrivalLane="1" color="green" depart="160.489568894" departLane="1" id="144" route="route0" type="Car" /><vehicle arrivalLane="0" color="green" depart="164.642239421" departLane="0" id="145" route="route0" type="Car" /><vehicle arrivalLane="0" color="green" depart="164.642239421" departLane="0" id="146" route="route0" type="Car" /><vehicle arrivalLane="0" color="green" depart="164.642239421" departLane="0" id="147" route="route0" type="Car" /><vehicle arrivalLane="1" color="green" depart="164.642239421" departLane="1" id="148" route="route0" type="Car" /><vehicle arrivalLane="1" color="green" depart="165.164012138" departLane="1" id="149" route="route0" type="Car" /><vehicle arrivalLane="1" color="green" depart="165.970992903" departLane="1" id="150" route="route0" type="Car" /><vehicle arrivalLane="0" color="green" depart="166.685880922" departLane="0" id="151" route="route0" type="Car" /><vehicle arrivalLane="1" color="green" depart="166.685880922" departLane="1" id="152" route="route0" type="Car" /><vehicle arrivalLane="0" color="green" depart="170.190646169" departLane="0" id="153" route="route0" type="Car" /><vehicle arrivalLane="0" color="green" depart="170.190646169" departLane="0" id="154" route="route0" type="Car" /><vehicle arrivalLane="0" color="green" depart="170.190646169" departLane="0" id="155" route="route0" type="Car" /><vehicle arrivalLane="0" color="green" depart="170.190646169" departLane="0" id="156" route="route0" type="Car" /><vehicle arrivalLane="1" color="green" depart="170.190646169" departLane="1" id="157" route="route0" type="Car" /><vehicle arrivalLane="1" color="green" depart="171.042900182" departLane="1" id="158" route="route0" type="Car" /><vehicle arrivalLane="1" color="green" depart="172.624831914" departLane="1" id="159" route="route0" type="Car" /><vehicle arrivalLane="1" color="green" depart="173.440055723" departLane="1" id="160" route="route0" type="Car" /><vehicle arrivalLane="1" color="green" depart="174.424074645" departLane="1" id="161" route="route0" type="Car" /><vehicle arrivalLane="0" color="green" depart="176.969356127" departLane="0" id="162" route="route0" type="Car" /><vehicle arrivalLane="1" color="green" depart="176.969356127" departLane="1" id="163" route="route0" type="Car" /><vehicle arrivalLane="1" color="green" depart="177.837085338" departLane="1" id="164" route="route0" type="Car" /><vehicle arrivalLane="1" color="green" depart="178.544363877" departLane="1" id="165" route="route0" type="Car" /><vehicle arrivalLane="1" color="green" depart="179.645349543" departLane="1" id="166" route="route0" type="Car" /><vehicle arrivalLane="1" color="green" depart="179.883047842" departLane="1" id="167" route="route0" type="Car" /><vehicle arrivalLane="0" color="green" depart="182.380949523" departLane="0" id="168" route="route0" type="Car" /><vehicle arrivalLane="0" color="green" depart="182.380949523" departLane="0" id="169" route="route0" type="Car" /><vehicle arrivalLane="1" color="green" depart="182.380949523" departLane="1" id="170" route="route0" type="Car" /><vehicle arrivalLane="0" color="green" depart="185.527447519" departLane="0" id="171" route="route0" type="Car" /><vehicle arrivalLane="0" color="green" depart="185.527447519" departLane="0" id="172" route="route0" type="Car" /><vehicle arrivalLane="1" color="green" depart="185.527447519" departLane="1" id="173" route="route0" type="Car" /><vehicle arrivalLane="1" color="green" depart="186.601260095" departLane="1" id="174" route="route0" type="Car" /><vehicle arrivalLane="0" color="green" depart="188.870471636" departLane="0" id="175" route="route0" type="Car" /><vehicle arrivalLane="0" color="green" depart="188.870471636" departLane="0" id="176" route="route0" type="Car" /><vehicle arrivalLane="1" color="green" depart="188.870471636" departLane="1" id="177" route="route0" type="Car" /><vehicle arrivalLane="0" color="green" depart="190.876202277" departLane="0" id="178" route="route0" type="Car" /><vehicle arrivalLane="1" color="green" depart="190.876202277" departLane="1" id="179" route="route0" type="Car" /><vehicle arrivalLane="1" color="green" depart="192.457316013" departLane="1" id="180" route="route0" type="Car" /><vehicle arrivalLane="0" color="green" depart="197.724628816" departLane="0" id="181" route="route0" type="Car" /><vehicle arrivalLane="0" color="green" depart="197.724628816" departLane="0" id="182" route="route0" type="Car" /><vehicle arrivalLane="0" color="green" depart="197.724628816" departLane="0" id="183" route="route0" type="Car" /><vehicle arrivalLane="1" color="green" depart="197.724628816" departLane="1" id="184" route="route0" type="Car" /><vehicle arrivalLane="0" color="green" depart="199.759309794" departLane="0" id="185" route="route0" type="Car" /><vehicle arrivalLane="1" color="green" depart="199.759309794" departLane="1" id="186" route="route0" type="Car" /><vehicle arrivalLane="0" color="green" depart="200.677678525" departLane="0" id="187" route="route0" type="Car" /><vehicle arrivalLane="1" color="green" depart="200.677678525" departLane="1" id="188" route="route0" type="Car" /><vehicle arrivalLane="1" color="green" depart="202.047630958" departLane="1" id="189" route="route0" type="Car" /><vehicle arrivalLane="0" color="green" depart="204.308085102" departLane="0" id="190" route="route0" type="Car" /><vehicle arrivalLane="1" color="green" depart="204.308085102" departLane="1" id="191" route="route0" type="Car" /><vehicle arrivalLane="1" color="green" depart="204.714462052" departLane="1" id="192" route="route0" type="Car" /><vehicle arrivalLane="0" color="green" depart="207.490196749" departLane="0" id="193" route="route0" type="Car" /><vehicle arrivalLane="1" color="green" depart="207.490196749" departLane="1" id="194" route="route0" type="Car" /><vehicle arrivalLane="1" color="green" depart="207.972902518" departLane="1" id="195" route="route0" type="Car" /><vehicle arrivalLane="1" color="green" depart="218.359273067" departLane="1" id="196" route="route0" type="Car" /><vehicle arrivalLane="1" color="green" depart="222.78855432" departLane="1" id="197" route="route0" type="Car" /><vehicle arrivalLane="1" color="green" depart="228.454067765" departLane="1" id="198" route="route0" type="Car" /><vehicle arrivalLane="1" color="green" depart="231.616399488" departLane="1" id="199" route="route0" type="Car" /></routes>