<routes><vType accel="2.9" decel="7.5" id="Car" length="4.3" maxSpeed="27.78" minGap="-1" sigma="0.0" tau="0" /><vType accel="2.9" decel="7.5" id="CarVIP" length="6.5" maxSpeed="27.78" minGap="-1" sigma="0.0" tau="0" /><route edges="1to2" id="route0" /><vehicle arrivalLane="0" color="green" depart="1.96008569363" departLane="0" id="0" route="route0" type="Car" /><vehicle arrivalLane="0" color="green" depart="1.96008569363" departLane="0" id="1" route="route0" type="Car" /><vehicle arrivalLane="1" color="green" depart="1.96008569363" departLane="1" id="2" route="route0" type="Car" /><vehicle arrivalLane="0" color="green" depart="2.36901875011" departLane="0" id="3" route="route0" type="Car" /><vehicle arrivalLane="1" color="green" depart="2.36901875011" departLane="1" id="4" route="route0" type="Car" /><vehicle arrivalLane="0" color="green" depart="7.01447691541" departLane="0" id="5" route="route0" type="Car" /><vehicle arrivalLane="1" color="green" depart="7.01447691541" departLane="1" id="6" route="route0" type="Car" /><vehicle arrivalLane="0" color="green" depart="8.5525971505" departLane="0" id="7" route="route0" type="Car" /><vehicle arrivalLane="1" color="green" depart="8.5525971505" departLane="1" id="8" route="route0" type="Car" /><vehicle arrivalLane="1" color="green" depart="9.02449175554" departLane="1" id="9" route="route0" type="Car" /><vehicle arrivalLane="0" color="green" depart="11.4360735755" departLane="0" id="10" route="route0" type="Car" /><vehicle arrivalLane="1" color="green" depart="11.4360735755" departLane="1" id="11" route="route0" type="Car" /><vehicle arrivalLane="1" color="green" depart="11.5948761007" departLane="1" id="12" route="route0" type="Car" /><vehicle arrivalLane="0" color="green" depart="13.4097671252" departLane="0" id="13" route="route0" type="Car" /><vehicle arrivalLane="1" color="green" depart="13.4097671252" departLane="1" id="14" route="route0" type="Car" /><vehicle arrivalLane="1" color="green" depart="13.6549805025" departLane="1" id="15" route="route0" type="Car" /><vehicle arrivalLane="1" color="green" depart="15.7014718881" departLane="1" id="16" route="route0" type="Car" /><vehicle arrivalLane="1" color="green" depart="16.1586939685" departLane="1" id="17" route="route0" type="Car" /><vehicle arrivalLane="1" color="green" depart="16.9628635234" departLane="1" id="18" route="route0" type="Car" /><vehicle arrivalLane="1" color="green" depart="17.4871583503" departLane="1" id="19" route="route0" type="Car" /><vehicle arrivalLane="0" color="green" depart="19.0999007177" departLane="0" id="20" route="route0" type="Car" /><vehicle arrivalLane="1" color="green" depart="19.0999007177" departLane="1" id="21" route="route0" type="Car" /><vehicle arrivalLane="0" color="green" depart="20.4370306345" departLane="0" id="22" route="route0" type="Car" /><vehicle arrivalLane="1" color="green" depart="20.4370306345" departLane="1" id="23" route="route0" type="Car" /><vehicle arrivalLane="1" color="green" depart="20.6580488033" departLane="1" id="24" route="route0" type="Car" /><vehicle arrivalLane="1" color="green" depart="20.7241061591" departLane="1" id="25" route="route0" type="Car" /><vehicle arrivalLane="1" color="green" depart="21.2414977999" departLane="1" id="26" route="route0" type="Car" /><vehicle arrivalLane="1" color="green" depart="22.1293714959" departLane="1" id="27" route="route0" type="Car" /><vehicle arrivalLane="0" color="green" depart="24.2469559278" departLane="0" id="28" route="route0" type="Car" /><vehicle arrivalLane="1" color="green" depart="24.2469559278" departLane="1" id="29" route="route0" type="Car" /><vehicle arrivalLane="1" color="green" depart="25.7030336925" departLane="1" id="30" route="route0" type="Car" /><vehicle arrivalLane="0" color="green" depart="30.3032538037" departLane="0" id="31" route="route0" type="Car" /><vehicle arrivalLane="0" color="green" depart="30.3032538037" departLane="0" id="32" route="route0" type="Car" /><vehicle arrivalLane="1" color="green" depart="30.3032538037" departLane="1" id="33" route="route0" type="Car" /><vehicle arrivalLane="0" color="green" depart="31.4280945422" departLane="0" id="34" route="route0" type="Car" /><vehicle arrivalLane="0" color="green" depart="31.4280945422" departLane="0" id="35" route="route0" type="Car" /><vehicle arrivalLane="1" color="green" depart="31.4280945422" departLane="1" id="36" route="route0" type="Car" /><vehicle arrivalLane="0" color="green" depart="32.0252062325" departLane="0" id="37" route="route0" type="Car" /><vehicle arrivalLane="1" color="green" depart="32.0252062325" departLane="1" id="38" route="route0" type="Car" /><vehicle arrivalLane="1" color="green" depart="33.9813328259" departLane="1" id="39" route="route0" type="Car" /><vehicle arrivalLane="1" color="green" depart="36.5343612891" departLane="1" id="40" route="route0" type="Car" /><vehicle arrivalLane="1" color="green" depart="37.6056820481" departLane="1" id="41" route="route0" type="Car" /><vehicle arrivalLane="0" color="green" depart="42.7679794991" departLane="0" id="42" route="route0" type="Car" /><vehicle arrivalLane="0" color="green" depart="42.7679794991" departLane="0" id="43" route="route0" type="Car" /><vehicle arrivalLane="1" color="green" depart="42.7679794991" departLane="1" id="44" route="route0" type="Car" /><vehicle arrivalLane="0" color="green" depart="43.9034191552" departLane="0" id="45" route="route0" type="Car" /><vehicle arrivalLane="1" color="green" depart="43.9034191552" departLane="1" id="46" route="route0" type="Car" /><vehicle arrivalLane="1" color="green" depart="43.9738005305" departLane="1" id="47" route="route0" type="Car" /><vehicle arrivalLane="1" color="green" depart="44.4172571008" departLane="1" id="48" route="route0" type="Car" /><vehicle arrivalLane="0" color="green" depart="54.8749718089" departLane="0" id="49" route="route0" type="Car" /><vehicle arrivalLane="0" color="green" depart="54.8749718089" departLane="0" id="50" route="route0" type="Car" /><vehicle arrivalLane="0" color="green" depart="54.8749718089" departLane="0" id="51" route="route0" type="Car" /><vehicle arrivalLane="0" color="green" depart="54.8749718089" departLane="0" id="52" route="route0" type="Car" /><vehicle arrivalLane="1" color="green" depart="54.8749718089" departLane="1" id="53" route="route0" type="Car" /><vehicle arrivalLane="1" color="green" depart="55.0381650225" departLane="1" id="54" route="route0" type="Car" /><vehicle arrivalLane="1" color="green" depart="56.6792158781" departLane="1" id="55" route="route0" type="Car" /><vehicle arrivalLane="0" color="green" depart="58.7314032258" departLane="0" id="56" route="route0" type="Car" /><vehicle arrivalLane="1" color="green" depart="58.7314032258" departLane="1" id="57" route="route0" type="Car" /><vehicle arrivalLane="0" color="green" depart="61.1719960122" departLane="0" id="58" route="route0" type="Car" /><vehicle arrivalLane="1" color="green" depart="61.1719960122" departLane="1" id="59" route="route0" type="Car" /><vehicle arrivalLane="0" color="green" depart="67.2172734916" departLane="0" id="60" route="route0" type="Car" /><vehicle arrivalLane="0" color="green" depart="67.2172734916" departLane="0" id="61" route="route0" type="Car" /><vehicle arrivalLane="0" color="green" depart="67.2172734916" departLane="0" id="62" route="route0" type="Car" /><vehicle arrivalLane="0" color="green" depart="67.2172734916" departLane="0" id="63" route="route0" type="Car" /><vehicle arrivalLane="0" color="green" depart="67.2172734916" departLane="0" id="64" route="route0" type="Car" /><vehicle arrivalLane="1" color="green" depart="67.2172734916" departLane="1" id="65" route="route0" type="Car" /><vehicle arrivalLane="1" color="green" depart="68.1994902427" departLane="1" id="66" route="route0" type="Car" /><vehicle arrivalLane="1" color="green" depart="69.765101706" departLane="1" id="67" route="route0" type="Car" /><vehicle arrivalLane="1" color="green" depart="70.9989062334" departLane="1" id="68" route="route0" type="Car" /><vehicle arrivalLane="1" color="green" depart="71.7974435655" departLane="1" id="69" route="route0" type="Car" /><vehicle arrivalLane="1" color="green" depart="71.8542425663" departLane="1" id="70" route="route0" type="Car" /><vehicle arrivalLane="0" color="green" depart="76.8474431774" departLane="0" id="71" route="route0" type="Car" /><vehicle arrivalLane="0" color="green" depart="76.8474431774" departLane="0" id="72" route="route0" type="Car" /><vehicle arrivalLane="0" color="green" depart="76.8474431774" departLane="0" id="73" route="route0" type="Car" /><vehicle arrivalLane="0" color="green" depart="76.8474431774" departLane="0" id="74" route="route0" type="Car" /><vehicle arrivalLane="1" color="green" depart="76.8474431774" departLane="1" id="75" route="route0" type="Car" /><vehicle arrivalLane="1" color="green" depart="78.8583113975" departLane="1" id="76" route="route0" type="Car" /><vehicle arrivalLane="0" color="green" depart="81.0162469423" departLane="0" id="77" route="route0" type="Car" /><vehicle arrivalLane="1" color="green" depart="81.0162469423" departLane="1" id="78" route="route0" type="Car" /><vehicle arrivalLane="0" color="green" depart="88.5635240059" departLane="0" id="79" route="route0" type="Car" /><vehicle arrivalLane="0" color="green" depart="88.5635240059" departLane="0" id="80" route="route0" type="Car" /><vehicle arrivalLane="0" color="green" depart="88.5635240059" departLane="0" id="81" route="route0" type="Car" /><vehicle arrivalLane="0" color="green" depart="88.5635240059" departLane="0" id="82" route="route0" type="Car" /><vehicle arrivalLane="0" color="green" depart="88.5635240059" departLane="0" id="83" route="route0" type="Car" /><vehicle arrivalLane="1" color="green" depart="88.5635240059" departLane="1" id="84" route="route0" type="Car" /><vehicle arrivalLane="1" color="green" depart="88.6790548149" departLane="1" id="85" route="route0" type="Car" /><vehicle arrivalLane="0" color="green" depart="91.0954082336" departLane="0" id="86" route="route0" type="Car" /><vehicle arrivalLane="1" color="green" depart="91.0954082336" departLane="1" id="87" route="route0" type="Car" /><vehicle arrivalLane="0" color="green" depart="92.5490432065" departLane="0" id="88" route="route0" type="Car" /><vehicle arrivalLane="1" color="green" depart="92.5490432065" departLane="1" id="89" route="route0" type="Car" /><vehicle arrivalLane="0" color="green" depart="96.1194811946" departLane="0" id="90" route="route0" type="Car" /><vehicle arrivalLane="0" color="green" depart="96.1194811946" departLane="0" id="91" route="route0" type="Car" /><vehicle arrivalLane="0" color="green" depart="96.1194811946" departLane="0" id="92" route="route0" type="Car" /><vehicle arrivalLane="1" color="green" depart="96.1194811946" departLane="1" id="93" route="route0" type="Car" /><vehicle arrivalLane="0" color="green" depart="99.4806031907" departLane="0" id="94" route="route0" type="Car" /><vehicle arrivalLane="1" color="green" depart="99.4806031907" departLane="1" id="95" route="route0" type="Car" /><vehicle arrivalLane="1" color="green" depart="100.206813529" departLane="1" id="96" route="route0" type="Car" /><vehicle arrivalLane="0" color="green" depart="100.788682356" departLane="0" id="97" route="route0" type="Car" /><vehicle arrivalLane="1" color="green" depart="100.788682356" departLane="1" id="98" route="route0" type="Car" /><vehicle arrivalLane="1" color="green" depart="103.184475011" departLane="1" id="99" route="route0" type="Car" /><vehicle arrivalLane="1" color="green" depart="104.893581459" departLane="1" id="100" route="route0" type="Car" /><vehicle arrivalLane="0" color="green" depart="109.603838079" departLane="0" id="101" route="route0" type="Car" /><vehicle arrivalLane="0" color="green" depart="109.603838079" departLane="0" id="102" route="route0" type="Car" /><vehicle arrivalLane="0" color="green" depart="109.603838079" departLane="0" id="103" route="route0" type="Car" /><vehicle arrivalLane="0" color="green" depart="109.603838079" departLane="0" id="104" route="route0" type="Car" /><vehicle arrivalLane="1" color="green" depart="109.603838079" departLane="1" id="105" route="route0" type="Car" /><vehicle arrivalLane="0" color="red" depart="115.144476379" departLane="0" id="vip" route="route0" type="CarVIP" /><vehicle arrivalLane="0" color="green" depart="115.144476379" departLane="0" id="107" route="route0" type="Car" /><vehicle arrivalLane="0" color="green" depart="115.144476379" departLane="0" id="108" route="route0" type="Car" /><vehicle arrivalLane="0" color="green" depart="115.144476379" departLane="0" id="109" route="route0" type="Car" /><vehicle arrivalLane="1" color="green" depart="115.144476379" departLane="1" id="110" route="route0" type="Car" /><vehicle arrivalLane="0" color="green" depart="115.826204085" departLane="0" id="111" route="route0" type="Car" /><vehicle arrivalLane="1" color="green" depart="115.826204085" departLane="1" id="112" route="route0" type="Car" /><vehicle arrivalLane="1" color="green" depart="115.842438983" departLane="1" id="113" route="route0" type="Car" /><vehicle arrivalLane="0" color="green" depart="116.117983047" departLane="0" id="114" route="route0" type="Car" /><vehicle arrivalLane="1" color="green" depart="116.117983047" departLane="1" id="115" route="route0" type="Car" /><vehicle arrivalLane="0" color="green" depart="123.437399113" departLane="0" id="116" route="route0" type="Car" /><vehicle arrivalLane="0" color="green" depart="123.437399113" departLane="0" id="117" route="route0" type="Car" /><vehicle arrivalLane="1" color="green" depart="123.437399113" departLane="1" id="118" route="route0" type="Car" /><vehicle arrivalLane="1" color="green" depart="124.686444874" departLane="1" id="119" route="route0" type="Car" /><vehicle arrivalLane="0" color="green" depart="128.455361349" departLane="0" id="120" route="route0" type="Car" /><vehicle arrivalLane="0" color="green" depart="128.455361349" departLane="0" id="121" route="route0" type="Car" /><vehicle arrivalLane="0" color="green" depart="128.455361349" departLane="0" id="122" route="route0" type="Car" /><vehicle arrivalLane="1" color="green" depart="128.455361349" departLane="1" id="123" route="route0" type="Car" /><vehicle arrivalLane="1" color="green" depart="130.603321405" departLane="1" id="124" route="route0" type="Car" /><vehicle arrivalLane="0" color="green" depart="133.109920648" departLane="0" id="125" route="route0" type="Car" /><vehicle arrivalLane="1" color="green" depart="133.109920648" departLane="1" id="126" route="route0" type="Car" /><vehicle arrivalLane="0" color="green" depart="134.363431991" departLane="0" id="127" route="route0" type="Car" /><vehicle arrivalLane="1" color="green" depart="134.363431991" departLane="1" id="128" route="route0" type="Car" /><vehicle arrivalLane="1" color="green" depart="136.03167237" departLane="1" id="129" route="route0" type="Car" /><vehicle arrivalLane="0" color="green" depart="142.410243306" departLane="0" id="130" route="route0" type="Car" /><vehicle arrivalLane="0" color="green" depart="142.410243306" departLane="0" id="131" route="route0" type="Car" /><vehicle arrivalLane="0" color="green" depart="142.410243306" departLane="0" id="132" route="route0" type="Car" /><vehicle arrivalLane="1" color="green" depart="142.410243306" departLane="1" id="133" route="route0" type="Car" /><vehicle arrivalLane="0" color="green" depart="145.21309324" departLane="0" id="134" route="route0" type="Car" /><vehicle arrivalLane="0" color="green" depart="145.21309324" departLane="0" id="135" route="route0" type="Car" /><vehicle arrivalLane="1" color="green" depart="145.21309324" departLane="1" id="136" route="route0" type="Car" /><vehicle arrivalLane="1" color="green" depart="145.26265197" departLane="1" id="137" route="route0" type="Car" /><vehicle arrivalLane="1" color="green" depart="147.984685708" departLane="1" id="138" route="route0" type="Car" /><vehicle arrivalLane="1" color="green" depart="149.445129691" departLane="1" id="139" route="route0" type="Car" /><vehicle arrivalLane="0" color="green" depart="150.628571751" departLane="0" id="140" route="route0" type="Car" /><vehicle arrivalLane="1" color="green" depart="150.628571751" departLane="1" id="141" route="route0" type="Car" /><vehicle arrivalLane="1" color="green" depart="151.238644978" departLane="1" id="142" route="route0" type="Car" /><vehicle arrivalLane="1" color="green" depart="151.579540375" departLane="1" id="143" route="route0" type="Car" /><vehicle arrivalLane="0" color="green" depart="155.327647467" departLane="0" id="144" route="route0" type="Car" /><vehicle arrivalLane="0" color="green" depart="155.327647467" departLane="0" id="145" route="route0" type="Car" /><vehicle arrivalLane="1" color="green" depart="155.327647467" departLane="1" id="146" route="route0" type="Car" /><vehicle arrivalLane="1" color="green" depart="155.69501804" departLane="1" id="147" route="route0" type="Car" /><vehicle arrivalLane="0" color="green" depart="161.550248677" departLane="0" id="148" route="route0" type="Car" /><vehicle arrivalLane="1" color="green" depart="161.550248677" departLane="1" id="149" route="route0" type="Car" /><vehicle arrivalLane="1" color="green" depart="161.609307198" departLane="1" id="150" route="route0" type="Car" /><vehicle arrivalLane="0" color="green" depart="162.827429219" departLane="0" id="151" route="route0" type="Car" /><vehicle arrivalLane="1" color="green" depart="162.827429219" departLane="1" id="152" route="route0" type="Car" /><vehicle arrivalLane="0" color="green" depart="167.669320166" departLane="0" id="153" route="route0" type="Car" /><vehicle arrivalLane="0" color="green" depart="167.669320166" departLane="0" id="154" route="route0" type="Car" /><vehicle arrivalLane="0" color="green" depart="167.669320166" departLane="0" id="155" route="route0" type="Car" /><vehicle arrivalLane="0" color="green" depart="167.669320166" departLane="0" id="156" route="route0" type="Car" /><vehicle arrivalLane="1" color="green" depart="167.669320166" departLane="1" id="157" route="route0" type="Car" /><vehicle arrivalLane="0" color="green" depart="169.257619846" departLane="0" id="158" route="route0" type="Car" /><vehicle arrivalLane="0" color="green" depart="169.257619846" departLane="0" id="159" route="route0" type="Car" /><vehicle arrivalLane="1" color="green" depart="169.257619846" departLane="1" id="160" route="route0" type="Car" /><vehicle arrivalLane="0" color="green" depart="184.518214761" departLane="0" id="161" route="route0" type="Car" /><vehicle arrivalLane="0" color="green" depart="184.518214761" departLane="0" id="162" route="route0" type="Car" /><vehicle arrivalLane="0" color="green" depart="184.518214761" departLane="0" id="163" route="route0" type="Car" /><vehicle arrivalLane="0" color="green" depart="184.518214761" departLane="0" id="164" route="route0" type="Car" /><vehicle arrivalLane="0" color="green" depart="184.518214761" departLane="0" id="165" route="route0" type="Car" /><vehicle arrivalLane="0" color="green" depart="184.518214761" departLane="0" id="166" route="route0" type="Car" /><vehicle arrivalLane="0" color="green" depart="184.518214761" departLane="0" id="167" route="route0" type="Car" /><vehicle arrivalLane="0" color="green" depart="184.518214761" departLane="0" id="168" route="route0" type="Car" /><vehicle arrivalLane="0" color="green" depart="184.518214761" departLane="0" id="169" route="route0" type="Car" /><vehicle arrivalLane="1" color="green" depart="184.518214761" departLane="1" id="170" route="route0" type="Car" /><vehicle arrivalLane="1" color="green" depart="189.813352935" departLane="1" id="171" route="route0" type="Car" /><vehicle arrivalLane="1" color="green" depart="194.322526462" departLane="1" id="172" route="route0" type="Car" /><vehicle arrivalLane="0" color="green" depart="197.571804102" departLane="0" id="173" route="route0" type="Car" /><vehicle arrivalLane="0" color="green" depart="197.571804102" departLane="0" id="174" route="route0" type="Car" /><vehicle arrivalLane="0" color="green" depart="197.571804102" departLane="0" id="175" route="route0" type="Car" /><vehicle arrivalLane="0" color="green" depart="197.571804102" departLane="0" id="176" route="route0" type="Car" /><vehicle arrivalLane="1" color="green" depart="197.571804102" departLane="1" id="177" route="route0" type="Car" /><vehicle arrivalLane="1" color="green" depart="198.074124619" departLane="1" id="178" route="route0" type="Car" /><vehicle arrivalLane="0" color="green" depart="200.909827153" departLane="0" id="179" route="route0" type="Car" /><vehicle arrivalLane="0" color="green" depart="200.909827153" departLane="0" id="180" route="route0" type="Car" /><vehicle arrivalLane="1" color="green" depart="200.909827153" departLane="1" id="181" route="route0" type="Car" /><vehicle arrivalLane="0" color="green" depart="203.165992691" departLane="0" id="182" route="route0" type="Car" /><vehicle arrivalLane="1" color="green" depart="203.165992691" departLane="1" id="183" route="route0" type="Car" /><vehicle arrivalLane="0" color="green" depart="206.470670872" departLane="0" id="184" route="route0" type="Car" /><vehicle arrivalLane="0" color="green" depart="206.470670872" departLane="0" id="185" route="route0" type="Car" /><vehicle arrivalLane="1" color="green" depart="206.470670872" departLane="1" id="186" route="route0" type="Car" /><vehicle arrivalLane="0" color="green" depart="207.117465963" departLane="0" id="187" route="route0" type="Car" /><vehicle arrivalLane="1" color="green" depart="207.117465963" departLane="1" id="188" route="route0" type="Car" /><vehicle arrivalLane="0" color="green" depart="209.247938231" departLane="0" id="189" route="route0" type="Car" /><vehicle arrivalLane="1" color="green" depart="209.247938231" departLane="1" id="190" route="route0" type="Car" /><vehicle arrivalLane="1" color="green" depart="209.620907284" departLane="1" id="191" route="route0" type="Car" /><vehicle arrivalLane="0" color="green" depart="211.560119015" departLane="0" id="192" route="route0" type="Car" /><vehicle arrivalLane="1" color="green" depart="211.560119015" departLane="1" id="193" route="route0" type="Car" /><vehicle arrivalLane="1" color="green" depart="213.066560803" departLane="1" id="194" route="route0" type="Car" /><vehicle arrivalLane="1" color="green" depart="214.148983357" departLane="1" id="195" route="route0" type="Car" /><vehicle arrivalLane="1" color="green" depart="215.08972213" departLane="1" id="196" route="route0" type="Car" /><vehicle arrivalLane="1" color="green" depart="217.224589232" departLane="1" id="197" route="route0" type="Car" /><vehicle arrivalLane="1" color="green" depart="219.775204984" departLane="1" id="198" route="route0" type="Car" /><vehicle arrivalLane="1" color="green" depart="220.994083246" departLane="1" id="199" route="route0" type="Car" /></routes>