<nodes>
    <node id="1" x="-4000.0" y="-2100.0" />
    <node id="2" x="-2800.0" y="-2100.0" />
    <node id="1_1" x="-4000.0" y="-2106" />
    <node id="2_2" x="-2800.0" y="-2106" />
   
</nodes>
