<routes>

<vType accel="2.9" decel="7.5" id="NV" length="4.3" maxSpeed="28" speedFactor="1.0" speedDev="0.1" minGap="0" sigma="0.0" tau="2" color="green"/>
<vType accel="2.9" decel="7.5" id="EV" length="6.5" maxSpeed="28" speedFactor="1.0" speedDev="0.0" minGap="0" sigma="0.0" tau="2" color="red"/>

<route edges="1to2" id="route0" />

<flow id="flow0" type="NV" departLane="0" route="route0" begin="0" end="500" probability="0.5" />
<flow id="flow1" type="NV" departLane="1" route="route0" begin="0" end="500" probability="0.5" />

<vehicle arrivalLane="0" color="red" depart="50" departLane="0" id="vip" route="route0" type="EV" />

</routes>